5HT2c_ligand2
  SciTegic09262214453D

 62 65  0  0  0  0            999 V2000
   -0.0226    0.5942   -1.4110 C   0  0
    1.3041    0.7098   -0.9412 C   0  0
    1.9345    1.9279   -0.6721 C   0  0
    1.1602    3.0935   -0.8986 C   0  0
   -0.1826    3.0420   -1.3802 C   0  0
   -0.7799    1.7678   -1.6385 C   0  0
    3.3515    1.7865   -0.1799 C   0  0
    3.5034    0.2544   -0.0715 C   0  0
    2.2803   -0.3547   -0.6403 N   0  0
    2.1121   -1.7474   -0.8797 C   0  0
    1.0908   -2.1615   -1.3791 O   0  0
   -0.8989    4.1656   -1.5999 O   0  0
   -0.3676    5.4747   -1.3776 C   0  0
   -2.0365    1.5554   -2.0974 O   0  0
   -3.0087    2.5847   -2.3134 C   0  0
   -3.6278    3.1158   -0.9973 C   0  0
   -4.2499    2.0860   -0.1460 N   0  0
   -3.2903    1.3333    0.6816 C   0  0
   -4.0085    0.4459    1.7072 C   0  0
   -4.9991   -0.4997    1.0136 C   0  0
   -5.9768    0.3202    0.1572 C   0  0
   -5.2246    1.2234   -0.8344 C   0  0
   -5.7125   -1.3079    1.9974 N   0  0
    3.1513   -2.7519   -0.5597 C   0  0
    3.8279   -2.8178    0.6094 C   0  0
    4.9070   -3.8322    0.9314 C   0  0
    5.7674   -3.6508    2.0472 C   0  0
    6.7635   -4.6052    2.3333 C   0  0
    6.9172   -5.7371    1.5207 C   0  0
    6.0738   -5.9256    0.4169 C   0  0
    5.0758   -4.9821    0.1258 C   0  0
    5.6543   -2.2824    3.0864 Cl  0  0
   -0.4703   -0.3689   -1.6004 H   0  0
    1.6289    4.0436   -0.6932 H   0  0
    3.4855    2.2804    0.7723 H   0  0
    4.0393    2.2101   -0.8976 H   0  0
    4.3810   -0.0932   -0.5980 H   0  0
    3.6013   -0.0179    0.9679 H   0  0
   -0.0952    5.5976   -0.3282 H   0  0
   -1.1324    6.2084   -1.6281 H   0  0
    0.5004    5.6423   -2.0178 H   0  0
   -2.5894    3.3757   -2.9343 H   0  0
   -3.7989    2.1491   -2.9247 H   0  0
   -2.8927    3.6633   -0.4098 H   0  0
   -4.3906    3.8505   -1.2539 H   0  0
   -2.6263    2.0259    1.1995 H   0  0
   -2.6712    0.7005    0.0493 H   0  0
   -3.2720   -0.1265    2.2721 H   0  0
   -4.5316    1.0756    2.4275 H   0  0
   -4.4410   -1.1714    0.3582 H   0  0
   -6.6478   -0.3424   -0.3896 H   0  0
   -6.6068    0.9379    0.7984 H   0  0
   -5.9381    1.8418   -1.3802 H   0  0
   -4.7095    0.6018   -1.5687 H   0  0
   -6.3505   -1.9535    1.5077 H   0  0
   -5.0340   -1.8733    2.5284 H   0  0
    3.3424   -3.4688   -1.3433 H   0  0
    3.5677   -2.0899    1.3600 H   0  0
    7.4230   -4.4784    3.1798 H   0  0
    7.6840   -6.4647    1.7452 H   0  0
    6.1921   -6.7979   -0.2091 H   0  0
    4.4443   -5.1699   -0.7289 H   0  0
  1  2  2  0
  1 33  1  0
  2  3  1  0
  2  9  1  0
  3  4  2  0
  3  7  1  0
  4  5  1  0
  4 34  1  0
  5  6  2  0
  5 12  1  0
  6  1  1  0
  6 14  1  0
  7  8  1  0
  7 35  1  0
  7 36  1  0
  8  9  1  0
  8 37  1  0
  8 38  1  0
  9 10  1  0
 10 11  2  0
 10 24  1  0
 12 13  1  0
 13 39  1  0
 13 40  1  0
 13 41  1  0
 14 15  1  0
 15 16  1  0
 15 42  1  0
 15 43  1  0
 16 17  1  0
 16 44  1  0
 16 45  1  0
 17 18  1  0
 17 22  1  0
 18 19  1  0
 18 46  1  0
 18 47  1  0
 19 20  1  0
 19 48  1  0
 19 49  1  0
 20 21  1  0
 20 23  1  0
 20 50  1  0
 21 22  1  0
 21 51  1  0
 21 52  1  0
 22 53  1  0
 22 54  1  0
 23 55  1  0
 23 56  1  0
 24 25  2  0
 24 57  1  0
 25 26  1  0
 25 58  1  0
 26 27  2  0
 26 31  1  0
 27 28  1  0
 27 32  1  0
 28 29  2  0
 28 59  1  0
 29 30  1  0
 29 60  1  0
 30 31  2  0
 30 61  1  0
 31 62  1  0
M  END
> <Name>
5HT2c_ligand2

> <AbsoluteEnergy>
67.3817

> <ConfNumber>
13

> <FitValue>
5.99913

> <HBA_5>
1

> <HBA_5_atom>
14

> <HBA_5_fit>
0.999941

> <HBA_6>
1

> <HBA_6_atom>
11

> <HBA_6_fit>
0.9999

> <HYDROPHOBAromatic_2>
1

> <HYDROPHOBAromatic_2_atom>
29

> <HYDROPHOBAromatic_2_fit>
0.99964

> <HYDROPHOBIC_3>
1

> <HYDROPHOBIC_3_atom>
7

> <HYDROPHOBIC_3_fit>
0.999758

> <HYDROPHOBIC_4>
1

> <HYDROPHOBIC_4_atom>
13

> <HYDROPHOBIC_4_fit>
0.999935

> <MapNumber>
1

> <MappedAtoms>
17,-4.241,2.093,-0.148,1.7,PosIonizable_1.11
29,6.2,-5.2,1.2,1.7,HYDROPHOBAromatic_2.11
7,2.98,1.56,-0.3,1.7,HYDROPHOBIC_3.11
13,-0.38,5.48,-1.38,1.7,HYDROPHOBIC_4.11
14,-2.029,1.555,-2.099,1.7,HBA_5.11
14,-2.86,-1.28,-2.7,2.3,HBA_5.21
11,1.094,-2.164,-1.373,1.7,HBA_6.11
11,0.74,-5.12,-1.9,2.3,HBA_6.21

> <MappedFeatures>
PosIonizable_1,HYDROPHOBAromatic_2,HYDROPHOBIC_3,HYDROPHOBIC_4,HBA_5,HBA_6

> <MappedLocations>
HBA_5.11,HBA_5.21,HBA_6.11,HBA_6.21,HYDROPHOBAromatic_2.11,HYDROPHOBIC_3.11,HYDROPHOBIC_4.11,PosIonizable_1.11

> <MappingID>
1

> <MaxOmitFeat>
0

> <OBJECTID>
9223372578023997442

> <Pharmprint>
'111111'

> <Pharmtype>
6

> <PosIonizable_1>
1

> <PosIonizable_1_atom>
17

> <PosIonizable_1_fit>
0.999954

> <Principal>
2

> <RelativeEnergy>
1.7087

$$$$
5HT2c_ligand4
  SciTegic09262214453D

 59 62  0  0  0  0            999 V2000
    0.1189    0.9313   -1.2201 C   0  0
   -0.6623    2.1028   -1.3077 C   0  0
   -0.0224    3.3792   -1.2124 C   0  0
    1.3931    3.4323   -1.0277 C   0  0
    2.1934    2.2629   -0.9322 C   0  0
    1.5133    1.0473   -1.0354 C   0  0
    2.5154   -0.0240   -0.9072 N   0  0
    3.8506    0.5763   -0.6955 C   0  0
    3.6796    2.1121   -0.7333 C   0  0
   -1.9871    1.8926   -1.4758 O   0  0
   -2.9550    2.9434   -1.5373 C   0  0
   -4.3523    2.3293   -1.7096 C   0  0
   -4.6492    1.3365   -0.6697 N   0  0
   -4.6702    1.8114    0.7033 C   0  0
   -5.2864    0.6644    1.4894 C   0  0
   -6.3902    0.2014    0.5381 C   0  0
   -5.8802    0.5757   -0.8562 C   0  0
   -0.7723    4.5005   -1.2984 O   0  0
   -0.2056    5.8111   -1.2135 C   0  0
    2.2500   -1.4181   -0.9783 C   0  0
    1.1401   -1.8503   -1.1866 O   0  0
    3.4242   -2.3556   -0.7909 C   0  0
    3.7384   -2.6074    0.6965 C   0  0
    4.6923   -3.7589    0.8882 C   0  0
    6.0946   -3.5396    0.9305 C   0  0
    6.9712   -4.6214    1.1323 C   0  0
    6.4711   -5.9214    1.2832 C   0  0
    5.0899   -6.1525    1.2274 C   0  0
    4.1982   -5.0845    1.0245 C   0  0
    2.5166   -5.4521    0.9458 Cl  0  0
    6.7885   -1.9750    0.7353 Cl  0  0
   -0.3632   -0.0307   -1.2953 H   0  0
    1.8991    4.3829   -0.9543 H   0  0
    4.5329    0.2499   -1.4678 H   0  0
    4.2530    0.2675    0.2571 H   0  0
    3.9922    2.5790    0.1903 H   0  0
    4.2199    2.5603   -1.5543 H   0  0
   -2.7325    3.5924   -2.3856 H   0  0
   -2.9097    3.5338   -0.6201 H   0  0
   -4.4122    1.8465   -2.6863 H   0  0
   -5.1107    3.1128   -1.6966 H   0  0
   -5.2829    2.7005    0.7773 H   0  0
   -3.6733    2.0506    1.0434 H   0  0
   -4.5603   -0.1232    1.6413 H   0  0
   -5.6628    0.9694    2.4546 H   0  0
   -7.3089    0.7291    0.7501 H   0  0
   -6.5893   -0.8565    0.6336 H   0  0
   -5.6795   -0.2946   -1.4641 H   0  0
   -6.6202    1.1746   -1.3701 H   0  0
    0.2828    5.9488   -0.2477 H   0  0
   -1.0076    6.5444   -1.3056 H   0  0
    0.5061    5.9677   -2.0246 H   0  0
    4.3052   -1.9900   -1.3205 H   0  0
    3.1703   -3.3005   -1.2738 H   0  0
    2.8137   -2.7909    1.2429 H   0  0
    4.1239   -1.7045    1.1679 H   0  0
    8.0407   -4.4664    1.1723 H   0  0
    7.1508   -6.7465    1.4407 H   0  0
    4.7263   -7.1639    1.3407 H   0  0
  1  2  2  0
  1 32  1  0
  2  3  1  0
  2 10  1  0
  3  4  2  0
  3 18  1  0
  4  5  1  0
  4 33  1  0
  5  6  2  0
  5  9  1  0
  6  1  1  0
  6  7  1  0
  7  8  1  0
  7 20  1  0
  8  9  1  0
  8 34  1  0
  8 35  1  0
  9 36  1  0
  9 37  1  0
 10 11  1  0
 11 12  1  0
 11 38  1  0
 11 39  1  0
 12 13  1  0
 12 40  1  0
 12 41  1  0
 13 14  1  0
 13 17  1  0
 14 15  1  0
 14 42  1  0
 14 43  1  0
 15 16  1  0
 15 44  1  0
 15 45  1  0
 16 17  1  0
 16 46  1  0
 16 47  1  0
 17 48  1  0
 17 49  1  0
 18 19  1  0
 19 50  1  0
 19 51  1  0
 19 52  1  0
 20 21  2  0
 20 22  1  0
 22 23  1  0
 22 53  1  0
 22 54  1  0
 23 24  1  0
 23 55  1  0
 23 56  1  0
 24 25  2  0
 24 29  1  0
 25 26  1  0
 25 31  1  0
 26 27  2  0
 26 57  1  0
 27 28  1  0
 27 58  1  0
 28 29  2  0
 28 59  1  0
 29 30  1  0
M  END
> <Name>
5HT2c_ligand4

> <AbsoluteEnergy>
68.0047

> <ConfNumber>
5

> <FitValue>
5.14351

> <HBA_5>
1

> <HBA_5_atom>
10

> <HBA_5_fit>
0.812661

> <HBA_6>
1

> <HBA_6_atom>
21

> <HBA_6_fit>
0.935359

> <HYDROPHOBAromatic_2>
1

> <HYDROPHOBAromatic_2_atom>
27

> <HYDROPHOBAromatic_2_fit>
0.951231

> <HYDROPHOBIC_3>
1

> <HYDROPHOBIC_3_atom>
9

> <HYDROPHOBIC_3_fit>
0.852162

> <HYDROPHOBIC_4>
1

> <HYDROPHOBIC_4_atom>
19

> <HYDROPHOBIC_4_fit>
0.941953

> <MapNumber>
1

> <MappedAtoms>
14,-4.241,2.093,-0.148,1.7,PosIonizable_1.11
27,6.2,-5.2,1.2,1.7,HYDROPHOBAromatic_2.11
9,2.98,1.56,-0.3,1.7,HYDROPHOBIC_3.11
19,-0.38,5.48,-1.38,1.7,HYDROPHOBIC_4.11
10,-2.029,1.555,-2.099,1.7,HBA_5.11
10,-2.86,-1.28,-2.7,2.3,HBA_5.21
21,1.094,-2.164,-1.373,1.7,HBA_6.11
21,0.74,-5.12,-1.9,2.3,HBA_6.21

> <MappedFeatures>
PosIonizable_1,HYDROPHOBAromatic_2,HYDROPHOBIC_3,HYDROPHOBIC_4,HBA_5,HBA_6

> <MappedLocations>
HBA_5.11,HBA_5.21,HBA_6.11,HBA_6.21,HYDROPHOBAromatic_2.11,HYDROPHOBIC_3.11,HYDROPHOBIC_4.11,PosIonizable_1.11

> <MappingID>
1

> <MaxOmitFeat>
0

> <OBJECTID>
9223372586613932034

> <Pharmprint>
'111111'

> <Pharmtype>
6

> <PosIonizable_1>
1

> <PosIonizable_1_atom>
14

> <PosIonizable_1_fit>
0.650148

> <Principal>
2

> <RelativeEnergy>
1.21789

$$$$
5HT2c_ligand1
  SciTegic09262214453D

 76 80  0  0  0  0            999 V2000
    0.5185    0.5405   -1.1477 C   0  0
    1.7849    0.8935   -0.6296 C   0  0
    2.2192    2.2118   -0.4612 C   0  0
    1.3047    3.2232   -0.8467 C   0  0
    0.0156    2.9298   -1.3839 C   0  0
   -0.3824    1.5621   -1.5306 C   0  0
    3.6081    2.3339    0.1071 C   0  0
    4.0128    0.8570    0.2893 C   0  0
    2.8829    0.0168   -0.1725 N   0  0
    2.8840   -1.4111   -0.1682 C   0  0
    1.9114   -2.0065   -0.5691 O   0  0
    4.0103   -2.0850    0.2943 N   0  0
    4.2226   -3.4623    0.3925 C   0  0
    5.5278   -3.9118    0.6964 C   0  0
    5.8162   -5.2795    0.8084 C   0  0
    4.8071   -6.2405    0.6201 C   0  0
    3.4948   -5.8113    0.3187 C   0  0
    3.2099   -4.4353    0.2115 C   0  0
    5.1456   -7.6949    0.7435 C   0  0
    2.2178   -6.9397    0.0783 Cl  0  0
   -0.8306    3.9131   -1.7623 O   0  0
   -0.4998    5.3000   -1.6499 C   0  0
   -1.5666    1.1272   -2.0259 O   0  0
   -2.6822    1.9766   -2.3244 C   0  0
   -3.3802    2.4772   -1.0412 C   0  0
   -3.7360    1.3796   -0.1249 N   0  0
   -4.8169    0.5259   -0.6384 C   0  0
   -5.0774   -0.6729    0.2850 C   0  0
   -5.3764   -0.2637    1.7455 C   0  0
   -4.2834    0.7260    2.2108 C   0  0
   -4.0539    1.8778    1.2206 C   0  0
   -5.4764   -1.4562    2.6353 N   0  0
   -5.5754   -1.1295    4.0772 C   0  0
   -5.5496   -2.3852    4.9632 C   0  0
   -6.6378   -3.3814    4.5637 C   0  0
   -6.5375   -3.6853    3.0699 C   0  0
   -6.5462   -2.3983    2.2315 C   0  0
    0.2226   -0.4915   -1.2584 H   0  0
    1.6231    4.2467   -0.7196 H   0  0
    4.2582    2.8493   -0.5861 H   0  0
    3.5935    2.8714    1.0446 H   0  0
    4.2276    0.6467    1.3278 H   0  0
    4.8995    0.6325   -0.2873 H   0  0
    4.7808   -1.5185    0.5924 H   0  0
    6.3346   -3.2077    0.8487 H   0  0
    6.8252   -5.5879    1.0410 H   0  0
    2.1917   -4.1581   -0.0101 H   0  0
    4.9408   -8.2163   -0.1923 H   0  0
    6.1981   -7.8541    0.9838 H   0  0
    4.5556   -8.1596    1.5344 H   0  0
    0.3749    5.5292   -2.2609 H   0  0
   -1.3418    5.8897   -2.0116 H   0  0
   -0.3145    5.5606   -0.6066 H   0  0
   -3.3814    1.3859   -2.9144 H   0  0
   -2.3806    2.7848   -2.9903 H   0  0
   -4.2772    3.0411   -1.3022 H   0  0
   -2.7280    3.1771   -0.5205 H   0  0
   -5.7267    1.1174   -0.7544 H   0  0
   -4.5569    0.1460   -1.6251 H   0  0
   -5.9106   -1.2261   -0.1447 H   0  0
   -4.2133   -1.3388    0.2597 H   0  0
   -6.3323    0.2627    1.7641 H   0  0
   -3.3434    0.1931    2.3626 H   0  0
   -4.5495    1.1743    3.1677 H   0  0
   -4.9361    2.5185    1.1753 H   0  0
   -3.2327    2.4967    1.5848 H   0  0
   -4.7357   -0.5104    4.3860 H   0  0
   -6.4857   -0.5562    4.2591 H   0  0
   -5.6704   -2.1056    6.0101 H   0  0
   -4.5725   -2.8639    4.8832 H   0  0
   -7.6193   -2.9615    4.7870 H   0  0
   -6.5464   -4.2991    5.1453 H   0  0
   -7.3610   -4.3323    2.7666 H   0  0
   -5.6198   -4.2402    2.8710 H   0  0
   -6.4219   -2.6960    1.1935 H   0  0
   -7.5153   -1.9031    2.3096 H   0  0
  1  2  2  0
  1 38  1  0
  2  3  1  0
  2  9  1  0
  3  4  2  0
  3  7  1  0
  4  5  1  0
  4 39  1  0
  5  6  2  0
  5 21  1  0
  6  1  1  0
  6 23  1  0
  7  8  1  0
  7 40  1  0
  7 41  1  0
  8  9  1  0
  8 42  1  0
  8 43  1  0
  9 10  1  0
 10 11  2  0
 10 12  1  0
 12 13  1  0
 12 44  1  0
 13 14  2  0
 13 18  1  0
 14 15  1  0
 14 45  1  0
 15 16  2  0
 15 46  1  0
 16 17  1  0
 16 19  1  0
 17 18  2  0
 17 20  1  0
 18 47  1  0
 19 48  1  0
 19 49  1  0
 19 50  1  0
 21 22  1  0
 22 51  1  0
 22 52  1  0
 22 53  1  0
 23 24  1  0
 24 25  1  0
 24 54  1  0
 24 55  1  0
 25 26  1  0
 25 56  1  0
 25 57  1  0
 26 27  1  0
 26 31  1  0
 27 28  1  0
 27 58  1  0
 27 59  1  0
 28 29  1  0
 28 60  1  0
 28 61  1  0
 29 30  1  0
 29 32  1  0
 29 62  1  0
 30 31  1  0
 30 63  1  0
 30 64  1  0
 31 65  1  0
 31 66  1  0
 32 33  1  0
 32 37  1  0
 33 34  1  0
 33 67  1  0
 33 68  1  0
 34 35  1  0
 34 69  1  0
 34 70  1  0
 35 36  1  0
 35 71  1  0
 35 72  1  0
 36 37  1  0
 36 73  1  0
 36 74  1  0
 37 75  1  0
 37 76  1  0
M  END
> <Name>
5HT2c_ligand1

> <AbsoluteEnergy>
71.7133

> <ConfNumber>
39

> <FitValue>
4.06234

> <HBA_5>
1

> <HBA_5_atom>
23

> <HBA_5_fit>
0.809007

> <HBA_6>
1

> <HBA_6_atom>
11

> <HBA_6_fit>
0.358748

> <HYDROPHOBAromatic_2>
1

> <HYDROPHOBAromatic_2_atom>
7

> <HYDROPHOBAromatic_2_fit>
0.271761

> <HYDROPHOBIC_3>
1

> <HYDROPHOBIC_3_atom>
3

> <HYDROPHOBIC_3_fit>
0.928757

> <HYDROPHOBIC_4>
1

> <HYDROPHOBIC_4_atom>
31

> <HYDROPHOBIC_4_fit>
0.958611

> <MapNumber>
1

> <MappedAtoms>
26,-4.241,2.093,-0.148,1.7,PosIonizable_1.11
7,6.2,-5.2,1.2,1.7,HYDROPHOBAromatic_2.11
3,2.98,1.56,-0.3,1.7,HYDROPHOBIC_3.11
31,-0.38,5.48,-1.38,1.7,HYDROPHOBIC_4.11
23,-2.029,1.555,-2.099,1.7,HBA_5.11
23,-2.86,-1.28,-2.7,2.3,HBA_5.21
11,1.094,-2.164,-1.373,1.7,HBA_6.11
11,0.74,-5.12,-1.9,2.3,HBA_6.21

> <MappedFeatures>
PosIonizable_1,HYDROPHOBAromatic_2,HYDROPHOBIC_3,HYDROPHOBIC_4,HBA_5,HBA_6

> <MappedLocations>
HBA_5.11,HBA_5.21,HBA_6.11,HBA_6.21,HYDROPHOBAromatic_2.11,HYDROPHOBIC_3.11,HYDROPHOBIC_4.11,PosIonizable_1.11

> <MappingID>
1

> <MaxOmitFeat>
0

> <OBJECTID>
9223372599498833922

> <Pharmprint>
'111111'

> <Pharmtype>
6

> <PosIonizable_1>
1

> <PosIonizable_1_atom>
26

> <PosIonizable_1_fit>
0.735461

> <Principal>
2

> <RelativeEnergy>
4.6324

$$$$
5HT2c_ligand6
  SciTegic09262214453D

 51 54  0  0  0  0            999 V2000
    0.5150    0.5402   -0.9641 C   0  0
   -0.2636    1.7290   -1.0258 C   0  0
    0.4008    3.0091   -0.9749 C   0  0
    1.8326    3.0529   -0.8897 C   0  0
    2.5667    1.8451   -0.8551 C   0  0
    1.9308    0.6335   -0.8838 C   0  0
    2.9621   -0.2897   -0.8151 N   0  0
    4.2198    0.3544   -0.7737 C   0  0
    3.9249    1.7309   -0.7931 C   0  0
   -0.3369    4.1450   -1.0122 O   0  0
    0.2578    5.4456   -1.0400 C   0  0
   -1.6093    1.5409   -1.1483 O   0  0
   -2.5552    2.6026   -1.1955 C   0  0
   -3.9697    2.0762   -1.5231 C   0  0
   -4.5440    1.1210   -0.5559 N   0  0
   -4.6946    1.7065    0.7904 C   0  0
   -5.2951    0.7061    1.7871 C   0  0
   -6.6248    0.1382    1.2826 C   0  0
   -6.4371   -0.4426   -0.1166 C   0  0
   -5.8229    0.5905   -1.0705 C   0  0
    2.7453   -1.7140   -0.7977 C   0  0
    1.7919   -2.2020   -1.3727 O   0  0
    3.6617   -2.6052   -0.0585 C   0  0
    5.2391   -2.2777    0.5059 S   0  0
    5.4980   -3.8202    1.1930 C   0  0
    4.3372   -4.5923    0.9809 C   0  0
    3.3147   -3.9204    0.2833 C   0  0
    6.7921   -4.5706    2.0342 Cl  0  0
    0.0387   -0.4305   -0.9830 H   0  0
    2.3588    3.9932   -0.8507 H   0  0
    5.1936   -0.1198   -0.7401 H   0  0
    4.6466    2.5372   -0.7631 H   0  0
    0.8520    5.6114   -0.1368 H   0  0
    0.8789    5.5517   -1.9275 H   0  0
   -0.5344    6.2008   -1.0749 H   0  0
   -2.5297    3.1540   -0.2606 H   0  0
   -2.2718    3.2838   -1.9931 H   0  0
   -3.9314    1.6057   -2.5024 H   0  0
   -4.6436    2.9228   -1.6248 H   0  0
   -5.3279    2.5967    0.7290 H   0  0
   -3.7176    2.0237    1.1679 H   0  0
   -5.4359    1.1755    2.7599 H   0  0
   -4.5906   -0.1102    1.9489 H   0  0
   -6.9991   -0.6199    1.9656 H   0  0
   -7.3781    0.9253    1.2527 H   0  0
   -5.7860   -1.3145   -0.0636 H   0  0
   -7.3920   -0.7949   -0.5084 H   0  0
   -5.6624    0.1338   -2.0469 H   0  0
   -6.5309    1.4080   -1.2179 H   0  0
    4.2216   -5.6174    1.3145 H   0  0
    2.3692   -4.3870    0.0380 H   0  0
  1  2  2  0
  1 29  1  0
  2  3  1  0
  2 12  1  0
  3  4  2  0
  3 10  1  0
  4  5  1  0
  4 30  1  0
  5  6  2  0
  5  9  1  0
  6  1  1  0
  6  7  1  0
  7  8  1  0
  7 21  1  0
  8  9  2  0
  8 31  1  0
  9 32  1  0
 10 11  1  0
 11 33  1  0
 11 34  1  0
 11 35  1  0
 12 13  1  0
 13 14  1  0
 13 36  1  0
 13 37  1  0
 14 15  1  0
 14 38  1  0
 14 39  1  0
 15 16  1  0
 15 20  1  0
 16 17  1  0
 16 40  1  0
 16 41  1  0
 17 18  1  0
 17 42  1  0
 17 43  1  0
 18 19  1  0
 18 44  1  0
 18 45  1  0
 19 20  1  0
 19 46  1  0
 19 47  1  0
 20 48  1  0
 20 49  1  0
 21 22  2  0
 21 23  1  0
 23 24  1  0
 23 27  2  0
 24 25  1  0
 25 26  2  0
 25 28  1  0
 26 27  1  0
 26 50  1  0
 27 51  1  0
M  END
> <Name>
5HT2c_ligand6

> <AbsoluteEnergy>
115.457

> <ConfNumber>
25

> <FitValue>
2.91548

> <HBA_5>
1

> <HBA_5_atom>
12

> <HBA_5_fit>
0.630407

> <HBA_6>
1

> <HBA_6_atom>
22

> <HBA_6_fit>
0.846186

> <HYDROPHOBAromatic_2>
1

> <HYDROPHOBAromatic_2_atom>
.

> <HYDROPHOBAromatic_2_fit>
-0.717978

> <HYDROPHOBIC_3>
1

> <HYDROPHOBIC_3_atom>
11

> <HYDROPHOBIC_3_fit>
0.754298

> <HYDROPHOBIC_4>
1

> <HYDROPHOBIC_4_atom>
5

> <HYDROPHOBIC_4_fit>
0.818822

> <MapNumber>
1

> <MappedAtoms>
15,-4.241,2.093,-0.148,1.7,PosIonizable_1.11
11,2.98,1.56,-0.3,1.7,HYDROPHOBIC_3.11
5,-0.38,5.48,-1.38,1.7,HYDROPHOBIC_4.11
12,-2.029,1.555,-2.099,1.7,HBA_5.11
12,-2.86,-1.28,-2.7,2.3,HBA_5.21
22,1.094,-2.164,-1.373,1.7,HBA_6.11
22,0.74,-5.12,-1.9,2.3,HBA_6.21

> <MappedFeatures>
PosIonizable_1,HYDROPHOBAromatic_2,HYDROPHOBIC_3,HYDROPHOBIC_4,HBA_5,HBA_6

> <MappedLocations>
HBA_5.11,HBA_5.21,HBA_6.11,HBA_6.21,HYDROPHOBAromatic_2.11,HYDROPHOBIC_3.11,HYDROPHOBIC_4.11,PosIonizable_1.11

> <MappingID>
1

> <MaxOmitFeat>
0

> <OBJECTID>
9223372595203866626

> <Pharmprint>
'111111'

> <Pharmtype>
6

> <PosIonizable_1>
1

> <PosIonizable_1_atom>
15

> <PosIonizable_1_fit>
0.58375

> <Principal>
2

> <RelativeEnergy>
6.35201

$$$$
5HT2c_ligand5
  SciTegic09262214453D

 57 60  0  0  0  0            999 V2000
    1.1874    0.5790   -0.1892 C   0  0
    0.2576    1.6114   -0.4486 C   0  0
    0.7374    2.9049   -0.7953 C   0  0
    2.1309    3.1141   -0.8860 C   0  0
    3.0364    2.0805   -0.6222 C   0  0
    2.5820    0.7990   -0.2536 C   0  0
   -0.1293    3.8877   -1.0287 O   0  0
    0.2721    5.2138   -1.3881 C   0  0
   -1.0329    1.2868   -0.3382 O   0  0
   -2.0926    2.2566   -0.2967 C   0  0
   -3.4462    1.5732   -0.0183 C   0  0
   -4.3234    1.5126   -1.2026 N   0  0
   -3.7450    0.6978   -2.2880 C   0  0
   -4.6280    0.7329   -3.5472 C   0  0
   -6.0709    0.3160   -3.2398 C   0  0
   -6.6250    1.1323   -2.0671 C   0  0
   -5.6866    1.0769   -0.8507 C   0  0
    3.5095   -0.1963    0.0520 N   0  0
    3.3666   -1.5943   -0.1081 C   0  0
    4.6013   -2.2349    0.3813 C   0  0
    5.4491   -1.2778    0.7975 C   0  0
    4.8383    0.0887    0.6189 C   0  0
    2.3902   -2.1366   -0.5726 O   0  0
    4.8985   -3.7223    0.4284 C   0  0
    6.2131   -4.1822    0.6588 C   0  0
    6.4931   -5.5558    0.7215 C   0  0
    5.4663   -6.5013    0.5553 C   0  0
    4.1435   -6.0566    0.3162 C   0  0
    3.8736   -4.6754    0.2506 C   0  0
    5.8795   -8.1707    0.6535 Cl  0  0
    2.8303   -7.1510    0.1033 Cl  0  0
    0.7995   -0.3945    0.0699 H   0  0
    2.5306    4.0788   -1.1603 H   0  0
    4.0902    2.3019   -0.7079 H   0  0
    0.8208    5.1982   -2.3303 H   0  0
   -0.6210    5.8262   -1.5173 H   0  0
    0.8825    5.6532   -0.5979 H   0  0
   -2.1310    2.8100   -1.2361 H   0  0
   -1.8795    2.9629    0.5083 H   0  0
   -3.9578    2.1416    0.7602 H   0  0
   -3.3007    0.5713    0.3898 H   0  0
   -2.7512    1.0628   -2.5445 H   0  0
   -3.6241   -0.3305   -1.9439 H   0  0
   -4.2089    0.0811   -4.3136 H   0  0
   -4.6233    1.7401   -3.9640 H   0  0
   -6.0983   -0.7449   -2.9904 H   0  0
   -6.6994    0.4471   -4.1210 H   0  0
   -7.6145    0.7663   -1.7921 H   0  0
   -6.7560    2.1703   -2.3769 H   0  0
   -6.0855    1.7193   -0.0644 H   0  0
   -5.6543    0.0643   -0.4474 H   0  0
    6.4378   -1.4163    1.2085 H   0  0
    4.7569    0.6001    1.5676 H   0  0
    5.4432    0.6769   -0.0563 H   0  0
    7.0316   -3.4903    0.7909 H   0  0
    7.5121   -5.8720    0.8992 H   0  0
    2.8597   -4.3543    0.0656 H   0  0
  1  2  2  0
  1 32  1  0
  2  3  1  0
  2  9  1  0
  3  4  2  0
  3  7  1  0
  4  5  1  0
  4 33  1  0
  5  6  2  0
  5 34  1  0
  6  1  1  0
  6 18  1  0
  7  8  1  0
  8 35  1  0
  8 36  1  0
  8 37  1  0
  9 10  1  0
 10 11  1  0
 10 38  1  0
 10 39  1  0
 11 12  1  0
 11 40  1  0
 11 41  1  0
 12 13  1  0
 12 17  1  0
 13 14  1  0
 13 42  1  0
 13 43  1  0
 14 15  1  0
 14 44  1  0
 14 45  1  0
 15 16  1  0
 15 46  1  0
 15 47  1  0
 16 17  1  0
 16 48  1  0
 16 49  1  0
 17 50  1  0
 17 51  1  0
 18 19  1  0
 18 22  1  0
 19 20  1  0
 19 23  2  0
 20 21  2  0
 20 24  1  0
 21 22  1  0
 21 52  1  0
 22 53  1  0
 22 54  1  0
 24 25  2  0
 24 29  1  0
 25 26  1  0
 25 55  1  0
 26 27  2  0
 26 56  1  0
 27 28  1  0
 27 30  1  0
 28 29  2  0
 28 31  1  0
 29 57  1  0
M  END
> <Name>
5HT2c_ligand5

> <AbsoluteEnergy>
56.6803

> <ConfNumber>
23

> <FitValue>
2.3064

> <HBA_5>
1

> <HBA_5_atom>
9

> <HBA_5_fit>
-0.452019

> <HBA_6>
1

> <HBA_6_atom>
23

> <HBA_6_fit>
0.285455

> <HYDROPHOBAromatic_2>
1

> <HYDROPHOBAromatic_2_atom>
2

> <HYDROPHOBAromatic_2_fit>
0.649836

> <HYDROPHOBIC_3>
1

> <HYDROPHOBIC_3_atom>
5

> <HYDROPHOBIC_3_fit>
0.498597

> <HYDROPHOBIC_4>
1

> <HYDROPHOBIC_4_atom>
23

> <HYDROPHOBIC_4_fit>
0.82831

> <MapNumber>
1

> <MappedAtoms>
11,-4.241,2.093,-0.148,1.7,PosIonizable_1.11
2,6.2,-5.2,1.2,1.7,HYDROPHOBAromatic_2.11
5,2.98,1.56,-0.3,1.7,HYDROPHOBIC_3.11
23,-0.38,5.48,-1.38,1.7,HYDROPHOBIC_4.11
9,-2.029,1.555,-2.099,1.7,HBA_5.11
9,-2.86,-1.28,-2.7,2.3,HBA_5.21
23,1.094,-2.164,-1.373,1.7,HBA_6.11
23,0.74,-5.12,-1.9,2.3,HBA_6.21

> <MappedFeatures>
PosIonizable_1,HYDROPHOBAromatic_2,HYDROPHOBIC_3,HYDROPHOBIC_4,HBA_5,HBA_6

> <MappedLocations>
HBA_5.11,HBA_5.21,HBA_6.11,HBA_6.21,HYDROPHOBAromatic_2.11,HYDROPHOBIC_3.11,HYDROPHOBIC_4.11,PosIonizable_1.11

> <MappingID>
1

> <MaxOmitFeat>
0

> <OBJECTID>
9223372590908899330

> <Pharmprint>
'111111'

> <Pharmtype>
6

> <PosIonizable_1>
1

> <PosIonizable_1_atom>
11

> <PosIonizable_1_fit>
0.496221

> <Principal>
2

> <RelativeEnergy>
5.34905

$$$$
5HT2c_ligand3
  SciTegic09262214453D

 58 61  0  0  0  0            999 V2000
    2.0768    3.0181   -0.6681 C   0  0
    0.7123    2.7835   -0.9588 C   0  0
    0.1431    1.5229   -0.6184 C   0  0
    0.9606    0.5361   -0.0319 C   0  0
    2.3276    0.7666    0.2185 C   0  0
    2.8743    2.0244   -0.0855 C   0  0
   -0.0432    3.7073   -1.5459 O   0  0
    0.4440    5.0097   -1.8906 C   0  0
   -1.1312    1.1780   -0.8144 O   0  0
   -2.0916    2.0145   -1.4744 C   0  0
   -3.4338    1.2683   -1.6024 C   0  0
   -4.3672    1.5072   -0.4831 N   0  0
   -5.6669    0.8550   -0.7317 C   0  0
   -6.6863    1.1826    0.3714 C   0  0
   -6.1449    0.8320    1.7607 C   0  0
   -4.7673    1.4672    1.9734 C   0  0
   -3.8011    1.1277    0.8251 C   0  0
    3.1333   -0.2269    0.7440 N   0  0
    3.9832   -0.0821    1.9295 C   0  0
    4.6836   -1.4433    2.0853 C   0  0
    4.2086   -2.2533    0.9556 N   0  0
    3.2799   -1.5116    0.2047 C   0  0
    2.6932   -1.9154   -0.7752 O   0  0
    4.6321   -3.5458    0.6756 C   0  0
    4.8889   -4.4672    1.7132 C   0  0
    5.3026   -5.7769    1.4170 C   0  0
    5.4643   -6.1905    0.0803 C   0  0
    5.2193   -5.2711   -0.9676 C   0  0
    4.8208   -3.9581   -0.6606 C   0  0
    5.9596   -7.8140   -0.2139 Cl  0  0
    5.3856   -5.6895   -2.6306 Cl  0  0
    2.5391    3.9680   -0.8905 H   0  0
    0.5180   -0.4178    0.2210 H   0  0
    3.9120    2.2449    0.1165 H   0  0
    1.2607    4.9276   -2.6107 H   0  0
   -0.3663    5.5770   -2.3460 H   0  0
    0.7773    5.5365   -0.9947 H   0  0
   -1.7207    2.2421   -2.4752 H   0  0
   -2.2153    2.9504   -0.9257 H   0  0
   -3.2606    0.1978   -1.7180 H   0  0
   -3.9144    1.6018   -2.5231 H   0  0
   -6.0616    1.1830   -1.6944 H   0  0
   -5.5250   -0.2250   -0.7959 H   0  0
   -7.6135    0.6411    0.1897 H   0  0
   -6.9344    2.2425    0.3302 H   0  0
   -6.0637   -0.2515    1.8588 H   0  0
   -6.8386    1.1648    2.5341 H   0  0
   -4.3497    1.1325    2.9235 H   0  0
   -4.8743    2.5508    2.0480 H   0  0
   -2.8617    1.6542    0.9942 H   0  0
   -3.5738    0.0594    0.8264 H   0  0
    4.7035    0.7107    1.7852 H   0  0
    3.3810    0.1565    2.7948 H   0  0
    5.7585   -1.3422    2.0506 H   0  0
    4.4124   -1.9082    3.0225 H   0  0
    4.7711   -4.1843    2.7508 H   0  0
    5.4916   -6.4600    2.2325 H   0  0
    4.6561   -3.2584   -1.4703 H   0  0
  1  2  2  0
  1 32  1  0
  2  3  1  0
  2  7  1  0
  3  4  2  0
  3  9  1  0
  4  5  1  0
  4 33  1  0
  5  6  2  0
  5 18  1  0
  6  1  1  0
  6 34  1  0
  7  8  1  0
  8 35  1  0
  8 36  1  0
  8 37  1  0
  9 10  1  0
 10 11  1  0
 10 38  1  0
 10 39  1  0
 11 12  1  0
 11 40  1  0
 11 41  1  0
 12 13  1  0
 12 17  1  0
 13 14  1  0
 13 42  1  0
 13 43  1  0
 14 15  1  0
 14 44  1  0
 14 45  1  0
 15 16  1  0
 15 46  1  0
 15 47  1  0
 16 17  1  0
 16 48  1  0
 16 49  1  0
 17 50  1  0
 17 51  1  0
 18 19  1  0
 18 22  1  0
 19 20  1  0
 19 52  1  0
 19 53  1  0
 20 21  1  0
 20 54  1  0
 20 55  1  0
 21 22  1  0
 21 24  1  0
 22 23  2  0
 24 25  2  0
 24 29  1  0
 25 26  1  0
 25 56  1  0
 26 27  2  0
 26 57  1  0
 27 28  1  0
 27 30  1  0
 28 29  2  0
 28 31  1  0
 29 58  1  0
M  END
> <Name>
5HT2c_ligand3

> <AbsoluteEnergy>
51.4956

> <ConfNumber>
21

> <FitValue>
1.90626

> <HBA_5>
1

> <HBA_5_atom>
9

> <HBA_5_fit>
-0.303475

> <HBA_6>
1

> <HBA_6_atom>
23

> <HBA_6_fit>
-0.158213

> <HYDROPHOBAromatic_2>
1

> <HYDROPHOBAromatic_2_atom>
.

> <HYDROPHOBAromatic_2_fit>
0.478524

> <HYDROPHOBIC_3>
1

> <HYDROPHOBIC_3_atom>
19

> <HYDROPHOBIC_3_fit>
0.454261

> <HYDROPHOBIC_4>
1

> <HYDROPHOBIC_4_atom>
.

> <HYDROPHOBIC_4_fit>
0.598273

> <MapNumber>
1

> <MappedAtoms>
12,-4.241,2.093,-0.148,1.7,PosIonizable_1.11
19,2.98,1.56,-0.3,1.7,HYDROPHOBIC_3.11
9,-2.029,1.555,-2.099,1.7,HBA_5.11
9,-2.86,-1.28,-2.7,2.3,HBA_5.21
23,1.094,-2.164,-1.373,1.7,HBA_6.11
23,0.74,-5.12,-1.9,2.3,HBA_6.21

> <MappedFeatures>
PosIonizable_1,HYDROPHOBAromatic_2,HYDROPHOBIC_3,HYDROPHOBIC_4,HBA_5,HBA_6

> <MappedLocations>
HBA_5.11,HBA_5.21,HBA_6.11,HBA_6.21,HYDROPHOBAromatic_2.11,HYDROPHOBIC_3.11,HYDROPHOBIC_4.11,PosIonizable_1.11

> <MappingID>
1

> <MaxOmitFeat>
0

> <OBJECTID>
9223372582318964738

> <Pharmprint>
'111111'

> <Pharmtype>
6

> <PosIonizable_1>
1

> <PosIonizable_1_atom>
12

> <PosIonizable_1_fit>
0.836894

> <Principal>
2

> <RelativeEnergy>
3.45166

$$$$
