5HT2c_ligand2
  SciTegic09262214453D

 62 65  0  0  0  0            999 V2000
   -0.2195    0.4490    0.1620 C   0  0
   -1.4766    0.3023   -0.4637 C   0  0
   -2.0610    1.2657   -1.2912 C   0  0
   -1.3143    2.4537   -1.4841 C   0  0
   -0.0412    2.6644   -0.8745 C   0  0
    0.5112    1.6420   -0.0359 C   0  0
   -3.4080    0.8681   -1.8377 C   0  0
   -3.6616   -0.4705   -1.1148 C   0  0
   -2.4224   -0.8238   -0.3858 N   0  0
   -2.2050   -2.0704    0.2609 C   0  0
   -1.1438   -2.3158    0.7849 O   0  0
    0.6525    3.8064   -1.0673 O   0  0
    0.1302    4.9028   -1.8259 C   0  0
    1.6903    1.7067    0.6298 O   0  0
    2.6221    2.7928    0.5259 C   0  0
    3.3708    2.7921   -0.8302 C   0  0
    4.6959    2.1414   -0.7931 N   0  0
    5.7179    2.9251   -0.0798 C   0  0
    7.1170    2.3122   -0.2567 C   0  0
    7.1444    0.8375    0.1772 C   0  0
    6.0364    0.0608   -0.5570 C   0  0
    4.6593    0.7267   -0.3862 C   0  0
    8.4615    0.2446   -0.0766 N   0  0
   -3.2597   -3.1026    0.3088 C   0  0
   -4.5117   -2.8445    0.7509 C   0  0
   -5.6675   -3.8218    0.7687 C   0  0
   -6.9555   -3.4148    1.2097 C   0  0
   -8.0203   -4.3350    1.2175 C   0  0
   -7.8191   -5.6562    0.7933 C   0  0
   -6.5521   -6.0662    0.3583 C   0  0
   -5.4843   -5.1570    0.3455 C   0  0
   -7.2797   -1.8085    1.7428 Cl  0  0
    0.1918   -0.3295    0.7884 H   0  0
   -1.7495    3.2122   -2.1195 H   0  0
   -4.1611    1.6090   -1.6090 H   0  0
   -3.3482    0.7434   -2.9096 H   0  0
   -3.9246   -1.2510   -1.8142 H   0  0
   -4.4785   -0.3523   -0.4187 H   0  0
   -0.7958    5.2669   -1.3740 H   0  0
    0.8620    5.7090   -1.8196 H   0  0
   -0.0440    4.5971   -2.8597 H   0  0
    3.3223    2.6935    1.3558 H   0  0
    2.1049    3.7318    0.7184 H   0  0
    3.4995    3.8219   -1.1639 H   0  0
    2.7667    2.3155   -1.6028 H   0  0
    5.7256    3.9498   -0.4544 H   0  0
    5.4691    2.9767    0.9802 H   0  0
    7.8430    2.8878    0.3168 H   0  0
    7.4148    2.3956   -1.3038 H   0  0
    6.9466    0.7892    1.2503 H   0  0
    5.9957   -0.9659   -0.1904 H   0  0
    6.2752    0.0002   -1.6201 H   0  0
    3.9213    0.1941   -0.9887 H   0  0
    4.3345    0.6522    0.6529 H   0  0
    8.4598   -0.7322    0.2540 H   0  0
    9.1735    0.7611    0.4619 H   0  0
   -2.9706   -4.0877   -0.0266 H   0  0
   -4.6768   -1.8453    1.1193 H   0  0
   -9.0043   -4.0370    1.5495 H   0  0
   -8.6400   -6.3584    0.8019 H   0  0
   -6.3980   -7.0834    0.0339 H   0  0
   -4.5283   -5.5170    0.0006 H   0  0
  1  2  2  0
  1 33  1  0
  2  3  1  0
  2  9  1  0
  3  4  2  0
  3  7  1  0
  4  5  1  0
  4 34  1  0
  5  6  2  0
  5 12  1  0
  6  1  1  0
  6 14  1  0
  7  8  1  0
  7 35  1  0
  7 36  1  0
  8  9  1  0
  8 37  1  0
  8 38  1  0
  9 10  1  0
 10 11  2  0
 10 24  1  0
 12 13  1  0
 13 39  1  0
 13 40  1  0
 13 41  1  0
 14 15  1  0
 15 16  1  0
 15 42  1  0
 15 43  1  0
 16 17  1  0
 16 44  1  0
 16 45  1  0
 17 18  1  0
 17 22  1  0
 18 19  1  0
 18 46  1  0
 18 47  1  0
 19 20  1  0
 19 48  1  0
 19 49  1  0
 20 21  1  0
 20 23  1  0
 20 50  1  0
 21 22  1  0
 21 51  1  0
 21 52  1  0
 22 53  1  0
 22 54  1  0
 23 55  1  0
 23 56  1  0
 24 25  2  0
 24 57  1  0
 25 26  1  0
 25 58  1  0
 26 27  2  0
 26 31  1  0
 27 28  1  0
 27 32  1  0
 28 29  2  0
 28 59  1  0
 29 30  1  0
 29 60  1  0
 30 31  2  0
 30 61  1  0
 31 62  1  0
M  END
> <Name>
5HT2c_ligand2

> <AbsoluteEnergy>
68.8542

> <ConfNumber>
21

> <FitValue>
5.99913

> <HBA_5>
1

> <HBA_5_atom>
14

> <HBA_5_fit>
0.999823

> <HBA_6>
1

> <HBA_6_atom>
11

> <HBA_6_fit>
0.999968

> <HYDROPHOBIC_2>
1

> <HYDROPHOBIC_2_atom>
22

> <HYDROPHOBIC_2_fit>
0.999821

> <HYDROPHOBIC_3>
1

> <HYDROPHOBIC_3_atom>
13

> <HYDROPHOBIC_3_fit>
0.999796

> <HYDROPHOBIC_4>
1

> <HYDROPHOBIC_4_atom>
.

> <HYDROPHOBIC_4_fit>
0.999737

> <MapNumber>
1

> <MappedAtoms>
17,4.697,2.136,-0.791,1.7,PosIonizable_1.11
22,-3.22,0.56,-1.52,1.7,HYDROPHOBIC_2.11
13,0.14,4.92,-1.84,1.7,HYDROPHOBIC_3.11
14,1.691,1.701,0.631,1.7,HBA_5.11
14,2.42,-0.58,2.48,2.3,HBA_5.21
11,-1.144,-2.321,0.783,1.7,HBA_6.11
11,-0.7,-4.96,2.14,2.3,HBA_6.21

> <MappedFeatures>
PosIonizable_1,HYDROPHOBIC_2,HYDROPHOBIC_3,HYDROPHOBIC_4,HBA_5,HBA_6

> <MappedLocations>
HBA_5.11,HBA_5.21,HBA_6.11,HBA_6.21,HYDROPHOBIC_2.11,HYDROPHOBIC_3.11,HYDROPHOBIC_4.11,PosIonizable_1.11

> <MappingID>
1

> <MaxOmitFeat>
0

> <OBJECTID>
9223372578023997442

> <Pharmprint>
'111111'

> <Pharmtype>
6

> <PosIonizable_1>
1

> <PosIonizable_1_atom>
17

> <PosIonizable_1_fit>
0.999988

> <Principal>
2

> <RelativeEnergy>
3.18119

$$$$
5HT2c_ligand4
  SciTegic09262214453D

 59 62  0  0  0  0            999 V2000
   -0.2435    0.0668    0.1402 C   0  0
    0.5621    1.2183   -0.0303 C   0  0
    0.0533    2.3133   -0.7971 C   0  0
   -1.2478    2.2077   -1.3769 C   0  0
   -2.0623    1.0579   -1.2257 C   0  0
   -1.5247    0.0238   -0.4553 C   0  0
   -2.5382   -1.0493   -0.4119 N   0  0
   -3.6775   -0.6819   -1.2788 C   0  0
   -3.4384    0.7632   -1.7662 C   0  0
    1.7702    1.1667    0.5826 O   0  0
    2.8060    2.1479    0.4364 C   0  0
    3.4987    2.0413   -0.9383 C   0  0
    4.6388    2.9634   -1.0596 N   0  0
    5.2042    3.0727   -2.4016 C   0  0
    6.7009    3.3603   -2.2407 C   0  0
    6.8891    3.5754   -0.7390 C   0  0
    5.7642    2.7241   -0.1699 C   0  0
    0.8099    3.4227   -0.9488 O   0  0
    0.3761    4.5497   -1.7154 C   0  0
   -2.4504   -2.2474    0.3499 C   0  0
   -1.4764   -2.4943    1.0216 O   0  0
   -3.6198   -3.2166    0.2851 C   0  0
   -4.4932   -3.2226    1.5642 C   0  0
   -5.8439   -2.5606    1.4092 C   0  0
   -6.9787   -3.3165    0.9975 C   0  0
   -8.2364   -2.6970    0.8786 C   0  0
   -8.3848   -1.3324    1.1549 C   0  0
   -7.2750   -0.5740    1.5487 C   0  0
   -6.0077   -1.1738    1.6750 C   0  0
   -4.6971   -0.1633    2.1533 Cl  0  0
   -6.8999   -4.9995    0.6324 Cl  0  0
    0.1334   -0.7601    0.7219 H   0  0
   -1.6510    3.0216   -1.9603 H   0  0
   -3.7226   -1.3615   -2.1179 H   0  0
   -4.6123   -0.7598   -0.7449 H   0  0
   -4.1597    1.4528   -1.3489 H   0  0
   -3.4589    0.8404   -2.8437 H   0  0
    2.4243    3.1441    0.6600 H   0  0
    3.5355    1.9335    1.2171 H   0  0
    3.8456    1.0198   -1.0957 H   0  0
    2.7890    2.2490   -1.7385 H   0  0
    4.6971    3.8556   -2.9456 H   0  0
    5.0666    2.1488   -2.9477 H   0  0
    7.2785    2.5079   -2.5688 H   0  0
    7.0207    4.2165   -2.8155 H   0  0
    7.8655    3.2730   -0.3899 H   0  0
    6.7434    4.6160   -0.4835 H   0  0
    5.5196    3.0004    0.8451 H   0  0
    6.0326    1.6769   -0.1869 H   0  0
   -0.5317    4.9724   -1.2837 H   0  0
    1.1597    5.3075   -1.6941 H   0  0
    0.2031    4.2557   -2.7519 H   0  0
   -4.2180   -3.0887   -0.6178 H   0  0
   -3.1927   -4.2142    0.1770 H   0  0
   -4.6278   -4.2537    1.8894 H   0  0
   -3.9481   -2.7888    2.4028 H   0  0
   -9.1051   -3.2627    0.5726 H   0  0
   -9.3543   -0.8651    1.0639 H   0  0
   -7.4114    0.4791    1.7529 H   0  0
  1  2  2  0
  1 32  1  0
  2  3  1  0
  2 10  1  0
  3  4  2  0
  3 18  1  0
  4  5  1  0
  4 33  1  0
  5  6  2  0
  5  9  1  0
  6  1  1  0
  6  7  1  0
  7  8  1  0
  7 20  1  0
  8  9  1  0
  8 34  1  0
  8 35  1  0
  9 36  1  0
  9 37  1  0
 10 11  1  0
 11 12  1  0
 11 38  1  0
 11 39  1  0
 12 13  1  0
 12 40  1  0
 12 41  1  0
 13 14  1  0
 13 17  1  0
 14 15  1  0
 14 42  1  0
 14 43  1  0
 15 16  1  0
 15 44  1  0
 15 45  1  0
 16 17  1  0
 16 46  1  0
 16 47  1  0
 17 48  1  0
 17 49  1  0
 18 19  1  0
 19 50  1  0
 19 51  1  0
 19 52  1  0
 20 21  2  0
 20 22  1  0
 22 23  1  0
 22 53  1  0
 22 54  1  0
 23 24  1  0
 23 55  1  0
 23 56  1  0
 24 25  2  0
 24 29  1  0
 25 26  1  0
 25 31  1  0
 26 27  2  0
 26 57  1  0
 27 28  1  0
 27 58  1  0
 28 29  2  0
 28 59  1  0
 29 30  1  0
M  END
> <Name>
5HT2c_ligand4

> <AbsoluteEnergy>
72.6436

> <ConfNumber>
45

> <FitValue>
5.4638

> <HBA_5>
1

> <HBA_5_atom>
10

> <HBA_5_fit>
0.913822

> <HBA_6>
1

> <HBA_6_atom>
21

> <HBA_6_fit>
0.904484

> <HYDROPHOBIC_2>
1

> <HYDROPHOBIC_2_atom>
5

> <HYDROPHOBIC_2_fit>
0.992747

> <HYDROPHOBIC_3>
1

> <HYDROPHOBIC_3_atom>
4

> <HYDROPHOBIC_3_fit>
0.92789

> <HYDROPHOBIC_4>
1

> <HYDROPHOBIC_4_atom>
.

> <HYDROPHOBIC_4_fit>
0.98787

> <MapNumber>
1

> <MappedAtoms>
13,4.697,2.136,-0.791,1.7,PosIonizable_1.11
5,-3.22,0.56,-1.52,1.7,HYDROPHOBIC_2.11
4,0.14,4.92,-1.84,1.7,HYDROPHOBIC_3.11
10,1.691,1.701,0.631,1.7,HBA_5.11
10,2.42,-0.58,2.48,2.3,HBA_5.21
21,-1.144,-2.321,0.783,1.7,HBA_6.11
21,-0.7,-4.96,2.14,2.3,HBA_6.21

> <MappedFeatures>
PosIonizable_1,HYDROPHOBIC_2,HYDROPHOBIC_3,HYDROPHOBIC_4,HBA_5,HBA_6

> <MappedLocations>
HBA_5.11,HBA_5.21,HBA_6.11,HBA_6.21,HYDROPHOBIC_2.11,HYDROPHOBIC_3.11,HYDROPHOBIC_4.11,PosIonizable_1.11

> <MappingID>
1

> <MaxOmitFeat>
0

> <OBJECTID>
9223372586613932034

> <Pharmprint>
'111111'

> <Pharmtype>
6

> <PosIonizable_1>
1

> <PosIonizable_1_atom>
13

> <PosIonizable_1_fit>
0.736988

> <Principal>
2

> <RelativeEnergy>
5.85688

$$$$
5HT2c_ligand6
  SciTegic09262214453D

 51 54  0  0  0  0            999 V2000
   -0.4826    0.1767    0.1380 C   0  0
    0.4208    1.2723   -0.0334 C   0  0
    0.0350    2.3694   -0.8771 C   0  0
   -1.2204    2.3250   -1.5571 C   0  0
   -2.0733    1.2130   -1.3729 C   0  0
   -1.7280    0.1754   -0.5454 C   0  0
   -2.8231   -0.6905   -0.6273 N   0  0
   -3.7911   -0.1865   -1.5246 C   0  0
   -3.2839    1.0473   -1.9728 C   0  0
    0.8684    3.4253   -1.0071 O   0  0
    0.5744    4.5428   -1.8484 C   0  0
    1.5982    1.1856    0.6413 O   0  0
    2.6547    2.1711    0.6204 C   0  0
    3.5195    2.0941   -0.6664 C   0  0
    4.7833    2.8901   -0.6369 N   0  0
    5.2926    3.0632   -2.0110 C   0  0
    6.5749    3.9123   -2.0290 C   0  0
    7.6445    3.3330   -1.0968 C   0  0
    7.0707    3.1306    0.3096 C   0  0
    5.7752    2.3012    0.2844 C   0  0
   -2.9504   -1.9493    0.0725 C   0  0
   -1.9688   -2.5325    0.4705 O   0  0
   -4.2747   -2.5757    0.3111 C   0  0
   -4.4365   -4.2244    0.7083 S   0  0
   -6.1389   -4.2309    0.7900 C   0  0
   -6.5895   -2.9238    0.5260 C   0  0
   -5.5584   -1.9920    0.2731 C   0  0
   -7.3381   -5.4182    1.1069 Cl  0  0
   -0.2156   -0.6465    0.7847 H   0  0
   -1.5304    3.1276   -2.2098 H   0  0
   -4.7225   -0.6577   -1.8082 H   0  0
   -3.7700    1.7236   -2.6637 H   0  0
    0.4772    4.2192   -2.8862 H   0  0
    1.3968    5.2547   -1.7806 H   0  0
   -0.3410    5.0345   -1.5152 H   0  0
    2.2564    3.1657    0.8179 H   0  0
    3.2796    1.9400    1.4813 H   0  0
    3.7691    1.0502   -0.8606 H   0  0
    2.9188    2.4045   -1.5201 H   0  0
    4.5323    3.5487   -2.6244 H   0  0
    5.4868    2.0852   -2.4530 H   0  0
    6.9627    3.9788   -3.0452 H   0  0
    6.3390    4.9312   -1.7206 H   0  0
    7.9884    2.3763   -1.4911 H   0  0
    8.5141    3.9900   -1.0622 H   0  0
    7.8117    2.6456    0.9458 H   0  0
    6.8695    4.1033    0.7610 H   0  0
    5.3710    2.2535    1.2943 H   0  0
    5.9969    1.2776   -0.0232 H   0  0
   -7.6331   -2.6345    0.5150 H   0  0
   -5.7709   -0.9501    0.0814 H   0  0
  1  2  2  0
  1 29  1  0
  2  3  1  0
  2 12  1  0
  3  4  2  0
  3 10  1  0
  4  5  1  0
  4 30  1  0
  5  6  2  0
  5  9  1  0
  6  1  1  0
  6  7  1  0
  7  8  1  0
  7 21  1  0
  8  9  2  0
  8 31  1  0
  9 32  1  0
 10 11  1  0
 11 33  1  0
 11 34  1  0
 11 35  1  0
 12 13  1  0
 13 14  1  0
 13 36  1  0
 13 37  1  0
 14 15  1  0
 14 38  1  0
 14 39  1  0
 15 16  1  0
 15 20  1  0
 16 17  1  0
 16 40  1  0
 16 41  1  0
 17 18  1  0
 17 42  1  0
 17 43  1  0
 18 19  1  0
 18 44  1  0
 18 45  1  0
 19 20  1  0
 19 46  1  0
 19 47  1  0
 20 48  1  0
 20 49  1  0
 21 22  2  0
 21 23  1  0
 23 24  1  0
 23 27  2  0
 24 25  1  0
 25 26  2  0
 25 28  1  0
 26 27  1  0
 26 50  1  0
 27 51  1  0
M  END
> <Name>
5HT2c_ligand6

> <AbsoluteEnergy>
117.535

> <ConfNumber>
29

> <FitValue>
5.0125

> <HBA_5>
1

> <HBA_5_atom>
12

> <HBA_5_fit>
0.892358

> <HBA_6>
1

> <HBA_6_atom>
22

> <HBA_6_fit>
0.594201

> <HYDROPHOBIC_2>
1

> <HYDROPHOBIC_2_atom>
9

> <HYDROPHOBIC_2_fit>
0.977788

> <HYDROPHOBIC_3>
1

> <HYDROPHOBIC_3_atom>
11

> <HYDROPHOBIC_3_fit>
0.88544

> <HYDROPHOBIC_4>
1

> <HYDROPHOBIC_4_atom>
28

> <HYDROPHOBIC_4_fit>
0.870293

> <MapNumber>
1

> <MappedAtoms>
15,4.697,2.136,-0.791,1.7,PosIonizable_1.11
9,-3.22,0.56,-1.52,1.7,HYDROPHOBIC_2.11
11,0.14,4.92,-1.84,1.7,HYDROPHOBIC_3.11
28,-6.94,-5.16,0.72,1.7,HYDROPHOBIC_4.11
12,1.691,1.701,0.631,1.7,HBA_5.11
12,2.42,-0.58,2.48,2.3,HBA_5.21
22,-1.144,-2.321,0.783,1.7,HBA_6.11
22,-0.7,-4.96,2.14,2.3,HBA_6.21

> <MappedFeatures>
PosIonizable_1,HYDROPHOBIC_2,HYDROPHOBIC_3,HYDROPHOBIC_4,HBA_5,HBA_6

> <MappedLocations>
HBA_5.11,HBA_5.21,HBA_6.11,HBA_6.21,HYDROPHOBIC_2.11,HYDROPHOBIC_3.11,HYDROPHOBIC_4.11,PosIonizable_1.11

> <MappingID>
1

> <MaxOmitFeat>
0

> <OBJECTID>
9223372595203866626

> <Pharmprint>
'111111'

> <Pharmtype>
6

> <PosIonizable_1>
1

> <PosIonizable_1_atom>
15

> <PosIonizable_1_fit>
0.792419

> <Principal>
2

> <RelativeEnergy>
8.42929

$$$$
5HT2c_ligand1
  SciTegic09262214453D

 76 80  0  0  0  0            999 V2000
   -0.4164    0.6736    0.0202 C   0  0
   -1.6453    0.7030   -0.6759 C   0  0
   -2.0743    1.7802   -1.4575 C   0  0
   -1.1945    2.8898   -1.5257 C   0  0
    0.0577    2.9206   -0.8421 C   0  0
    0.4512    1.7878   -0.0601 C   0  0
   -3.4192    1.5733   -2.1020 C   0  0
   -3.8065    0.1675   -1.5976 C   0  0
   -2.7031   -0.3266   -0.7417 N   0  0
   -2.6881   -1.5990   -0.0946 C   0  0
   -1.7374   -1.9091    0.5850 O   0  0
   -3.7731   -2.4550   -0.2540 N   0  0
   -3.9346   -3.7344    0.2779 C   0  0
   -2.8612   -4.5189    0.7608 C   0  0
   -3.0892   -5.7967    1.2951 C   0  0
   -4.3898   -6.3305    1.3512 C   0  0
   -5.4714   -5.5640    0.8608 C   0  0
   -5.2374   -4.2814    0.3302 C   0  0
   -4.5997   -7.6976    1.9273 C   0  0
   -7.0847   -6.1612    0.8951 Cl  0  0
    0.8761    3.9938   -0.9140 O   0  0
    0.5572    5.1561   -1.6837 C   0  0
    1.6047    1.6695    0.6415 O   0  0
    2.6725    2.6242    0.6095 C   0  0
    3.4403    2.6019   -0.7308 C   0  0
    4.4202    1.5044   -0.8239 N   0  0
    3.8056    0.1627   -0.8323 C   0  0
    4.8659   -0.9509   -0.8621 C   0  0
    5.8319   -0.7747   -2.0459 C   0  0
    6.4352    0.6383   -2.0102 C   0  0
    5.3313    1.7066   -1.9658 C   0  0
    6.8745   -1.8220   -2.1136 N   0  0
    6.3782   -3.1055   -2.6415 C   0  0
    7.5396   -4.0603   -2.9621 C   0  0
    8.4482   -4.2684   -1.7456 C   0  0
    8.8959   -2.9178   -1.1763 C   0  0
    7.6946   -1.9997   -0.8992 C   0  0
   -0.1234   -0.1797    0.6124 H   0  0
   -1.5101    3.7308   -2.1247 H   0  0
   -3.3353    1.6092   -3.1786 H   0  0
   -4.1193    2.3291   -1.7759 H   0  0
   -4.7240    0.2077   -1.0279 H   0  0
   -3.9589   -0.5067   -2.4285 H   0  0
   -4.5421   -2.1222   -0.8030 H   0  0
   -1.8384   -4.1779    0.7356 H   0  0
   -2.2506   -6.3702    1.6636 H   0  0
   -6.0759   -3.7068   -0.0422 H   0  0
   -5.2579   -7.6493    2.7961 H   0  0
   -3.6633   -8.1574    2.2493 H   0  0
   -5.0518   -8.3594    1.1868 H   0  0
    0.4525    4.8928   -2.7375 H   0  0
    1.3704    5.8751   -1.5835 H   0  0
   -0.3615    5.6137   -1.3128 H   0  0
    2.2877    3.6134    0.8581 H   0  0
    3.3562    2.3744    1.4215 H   0  0
    2.7638    2.5570   -1.5844 H   0  0
    3.9708    3.5511   -0.8167 H   0  0
    3.1387    0.0723   -1.6909 H   0  0
    3.1995    0.0260    0.0609 H   0  0
    4.3718   -1.9209   -0.9145 H   0  0
    5.4144   -0.9324    0.0803 H   0  0
    5.2408   -0.8309   -2.9618 H   0  0
    7.0754    0.7665   -1.1376 H   0  0
    7.0664    0.8005   -2.8844 H   0  0
    4.7590    1.6919   -2.8948 H   0  0
    5.7936    2.6919   -1.8944 H   0  0
    5.7968   -2.9329   -3.5479 H   0  0
    5.7073   -3.5646   -1.9145 H   0  0
    7.1504   -5.0196   -3.3040 H   0  0
    8.1262   -3.6537   -3.7867 H   0  0
    7.9069   -4.8234   -0.9788 H   0  0
    9.3143   -4.8724   -2.0173 H   0  0
    9.4670   -3.0721   -0.2602 H   0  0
    9.5701   -2.4312   -1.8821 H   0  0
    8.0572   -1.0371   -0.5420 H   0  0
    7.0844   -2.4281   -0.1032 H   0  0
  1  2  2  0
  1 38  1  0
  2  3  1  0
  2  9  1  0
  3  4  2  0
  3  7  1  0
  4  5  1  0
  4 39  1  0
  5  6  2  0
  5 21  1  0
  6  1  1  0
  6 23  1  0
  7  8  1  0
  7 40  1  0
  7 41  1  0
  8  9  1  0
  8 42  1  0
  8 43  1  0
  9 10  1  0
 10 11  2  0
 10 12  1  0
 12 13  1  0
 12 44  1  0
 13 14  2  0
 13 18  1  0
 14 15  1  0
 14 45  1  0
 15 16  2  0
 15 46  1  0
 16 17  1  0
 16 19  1  0
 17 18  2  0
 17 20  1  0
 18 47  1  0
 19 48  1  0
 19 49  1  0
 19 50  1  0
 21 22  1  0
 22 51  1  0
 22 52  1  0
 22 53  1  0
 23 24  1  0
 24 25  1  0
 24 54  1  0
 24 55  1  0
 25 26  1  0
 25 56  1  0
 25 57  1  0
 26 27  1  0
 26 31  1  0
 27 28  1  0
 27 58  1  0
 27 59  1  0
 28 29  1  0
 28 60  1  0
 28 61  1  0
 29 30  1  0
 29 32  1  0
 29 62  1  0
 30 31  1  0
 30 63  1  0
 30 64  1  0
 31 65  1  0
 31 66  1  0
 32 33  1  0
 32 37  1  0
 33 34  1  0
 33 67  1  0
 33 68  1  0
 34 35  1  0
 34 69  1  0
 34 70  1  0
 35 36  1  0
 35 71  1  0
 35 72  1  0
 36 37  1  0
 36 73  1  0
 36 74  1  0
 37 75  1  0
 37 76  1  0
M  END
> <Name>
5HT2c_ligand1

> <AbsoluteEnergy>
70.2769

> <ConfNumber>
27

> <FitValue>
4.44234

> <HBA_5>
1

> <HBA_5_atom>
23

> <HBA_5_fit>
0.973346

> <HBA_6>
1

> <HBA_6_atom>
11

> <HBA_6_fit>
0.244252

> <HYDROPHOBIC_2>
1

> <HYDROPHOBIC_2_atom>
8

> <HYDROPHOBIC_2_fit>
0.842354

> <HYDROPHOBIC_3>
1

> <HYDROPHOBIC_3_atom>
22

> <HYDROPHOBIC_3_fit>
0.912017

> <HYDROPHOBIC_4>
1

> <HYDROPHOBIC_4_atom>
20

> <HYDROPHOBIC_4_fit>
0.635286

> <MapNumber>
1

> <MappedAtoms>
26,4.697,2.136,-0.791,1.7,PosIonizable_1.11
8,-3.22,0.56,-1.52,1.7,HYDROPHOBIC_2.11
22,0.14,4.92,-1.84,1.7,HYDROPHOBIC_3.11
20,-6.94,-5.16,0.72,1.7,HYDROPHOBIC_4.11
23,1.691,1.701,0.631,1.7,HBA_5.11
23,2.42,-0.58,2.48,2.3,HBA_5.21
11,-1.144,-2.321,0.783,1.7,HBA_6.11
11,-0.7,-4.96,2.14,2.3,HBA_6.21

> <MappedFeatures>
PosIonizable_1,HYDROPHOBIC_2,HYDROPHOBIC_3,HYDROPHOBIC_4,HBA_5,HBA_6

> <MappedLocations>
HBA_5.11,HBA_5.21,HBA_6.11,HBA_6.21,HYDROPHOBIC_2.11,HYDROPHOBIC_3.11,HYDROPHOBIC_4.11,PosIonizable_1.11

> <MappingID>
1

> <MaxOmitFeat>
0

> <OBJECTID>
9223372599498833922

> <Pharmprint>
'111111'

> <Pharmtype>
6

> <PosIonizable_1>
1

> <PosIonizable_1_atom>
26

> <PosIonizable_1_fit>
0.835085

> <Principal>
2

> <RelativeEnergy>
3.19605

$$$$
5HT2c_ligand5
  SciTegic09262214453D

 57 60  0  0  0  0            999 V2000
   -1.4877    0.4383   -0.0732 C   0  0
   -0.5164    1.4137   -0.3940 C   0  0
   -0.8696    2.4839   -1.2621 C   0  0
   -2.1779    2.5300   -1.7910 C   0  0
   -3.1273    1.5570   -1.4593 C   0  0
   -2.8046    0.5028   -0.5822 C   0  0
    0.0335    3.4150   -1.5602 O   0  0
   -0.2408    4.5190   -2.4292 C   0  0
    0.6871    1.2557    0.1626 O   0  0
    1.6965    2.2784    0.1700 C   0  0
    2.9103    1.8402    1.0134 C   0  0
    4.0886    1.4862    0.1997 N   0  0
    3.8392    0.3227   -0.6723 C   0  0
    5.0450    0.0361   -1.5836 C   0  0
    6.3377   -0.1335   -0.7771 C   0  0
    6.5389    1.0568    0.1669 C   0  0
    5.2921    1.3060    1.0310 C   0  0
   -3.7866   -0.4227   -0.2312 N   0  0
   -3.6123   -1.7814    0.1211 C   0  0
   -4.9390   -2.3408    0.4388 C   0  0
   -5.8647   -1.3800    0.2715 C   0  0
   -5.2202   -0.0915   -0.1723 C   0  0
   -2.5472   -2.3543    0.1436 O   0  0
   -5.2462   -3.7574    0.8883 C   0  0
   -6.5745   -4.2350    0.8907 C   0  0
   -6.8690   -5.5375    1.3218 C   0  0
   -5.8431   -6.3927    1.7601 C   0  0
   -4.5044   -5.9315    1.7571 C   0  0
   -4.2188   -4.6235    1.3182 C   0  0
   -6.2771   -7.9752    2.2842 Cl  0  0
   -3.1916   -6.9167    2.2798 Cl  0  0
   -1.1956   -0.3653    0.5857 H   0  0
   -2.4771    3.3195   -2.4640 H   0  0
   -4.1114    1.6462   -1.8954 H   0  0
   -0.4978    4.1583   -3.4256 H   0  0
    0.6557    5.1354   -2.5044 H   0  0
   -1.0486    5.1298   -2.0239 H   0  0
    2.0047    2.5080   -0.8512 H   0  0
    1.2668    3.1812    0.6089 H   0  0
    3.1819    2.6681    1.6704 H   0  0
    2.6485    1.0097    1.6716 H   0  0
    2.9621    0.4988   -1.2938 H   0  0
    3.6191   -0.5507   -0.0566 H   0  0
    4.8581   -0.8588   -2.1771 H   0  0
    5.1654    0.8554   -2.2922 H   0  0
    6.2865   -1.0546   -0.1961 H   0  0
    7.1923   -0.2326   -1.4467 H   0  0
    7.4066    0.8853    0.8044 H   0  0
    6.7590    1.9512   -0.4181 H   0  0
    5.4539    2.1964    1.6402 H   0  0
    5.1401    0.4739    1.7192 H   0  0
   -6.9303   -1.4682    0.4204 H   0  0
   -5.4099    0.6984    0.5405 H   0  0
   -5.6038    0.1976   -1.1404 H   0  0
   -7.3925   -3.6118    0.5613 H   0  0
   -7.8981   -5.8700    1.3096 H   0  0
   -3.1924   -4.2892    1.3207 H   0  0
  1  2  2  0
  1 32  1  0
  2  3  1  0
  2  9  1  0
  3  4  2  0
  3  7  1  0
  4  5  1  0
  4 33  1  0
  5  6  2  0
  5 34  1  0
  6  1  1  0
  6 18  1  0
  7  8  1  0
  8 35  1  0
  8 36  1  0
  8 37  1  0
  9 10  1  0
 10 11  1  0
 10 38  1  0
 10 39  1  0
 11 12  1  0
 11 40  1  0
 11 41  1  0
 12 13  1  0
 12 17  1  0
 13 14  1  0
 13 42  1  0
 13 43  1  0
 14 15  1  0
 14 44  1  0
 14 45  1  0
 15 16  1  0
 15 46  1  0
 15 47  1  0
 16 17  1  0
 16 48  1  0
 16 49  1  0
 17 50  1  0
 17 51  1  0
 18 19  1  0
 18 22  1  0
 19 20  1  0
 19 23  2  0
 20 21  2  0
 20 24  1  0
 21 22  1  0
 21 52  1  0
 22 53  1  0
 22 54  1  0
 24 25  2  0
 24 29  1  0
 25 26  1  0
 25 55  1  0
 26 27  2  0
 26 56  1  0
 27 28  1  0
 27 30  1  0
 28 29  2  0
 28 31  1  0
 29 57  1  0
M  END
> <Name>
5HT2c_ligand5

> <AbsoluteEnergy>
56.6803

> <ConfNumber>
23

> <FitValue>
2.21987

> <HBA_5>
1

> <HBA_5_atom>
9

> <HBA_5_fit>
0.481804

> <HBA_6>
1

> <HBA_6_atom>
23

> <HBA_6_fit>
0.0402114

> <HYDROPHOBIC_2>
1

> <HYDROPHOBIC_2_atom>
5

> <HYDROPHOBIC_2_fit>
0.0839114

> <HYDROPHOBIC_3>
1

> <HYDROPHOBIC_3_atom>
8

> <HYDROPHOBIC_3_fit>
0.774063

> <HYDROPHOBIC_4>
1

> <HYDROPHOBIC_4_atom>
26

> <HYDROPHOBIC_4_fit>
0.453678

> <MapNumber>
1

> <MappedAtoms>
12,4.697,2.136,-0.791,1.7,PosIonizable_1.11
5,-3.22,0.56,-1.52,1.7,HYDROPHOBIC_2.11
8,0.14,4.92,-1.84,1.7,HYDROPHOBIC_3.11
26,-6.94,-5.16,0.72,1.7,HYDROPHOBIC_4.11
9,1.691,1.701,0.631,1.7,HBA_5.11
9,2.42,-0.58,2.48,2.3,HBA_5.21
23,-1.144,-2.321,0.783,1.7,HBA_6.11
23,-0.7,-4.96,2.14,2.3,HBA_6.21

> <MappedFeatures>
PosIonizable_1,HYDROPHOBIC_2,HYDROPHOBIC_3,HYDROPHOBIC_4,HBA_5,HBA_6

> <MappedLocations>
HBA_5.11,HBA_5.21,HBA_6.11,HBA_6.21,HYDROPHOBIC_2.11,HYDROPHOBIC_3.11,HYDROPHOBIC_4.11,PosIonizable_1.11

> <MappingID>
1

> <MaxOmitFeat>
0

> <OBJECTID>
9223372590908899330

> <Pharmprint>
'111111'

> <Pharmtype>
6

> <PosIonizable_1>
1

> <PosIonizable_1_atom>
12

> <PosIonizable_1_fit>
0.386205

> <Principal>
2

> <RelativeEnergy>
5.34905

$$$$
5HT2c_ligand3
  SciTegic09262214453D

 58 61  0  0  0  0            999 V2000
   -0.6116    3.0815   -2.0128 C   0  0
    0.4369    3.0062   -1.0634 C   0  0
    0.3762    2.0076   -0.0526 C   0  0
   -0.7297    1.1431   -0.0075 C   0  0
   -1.7555    1.2039   -0.9678 C   0  0
   -1.6950    2.1909   -1.9676 C   0  0
    1.4708    3.8420   -1.0896 O   0  0
    1.6121    4.8750   -2.0695 C   0  0
    1.2972    1.8000    0.8863 O   0  0
    2.6485    2.2701    0.8096 C   0  0
    3.4042    1.5774   -0.3477 C   0  0
    4.8066    1.9972   -0.4746 N   0  0
    4.9602    3.4202   -0.8271 C   0  0
    6.4216    3.7681   -1.1453 C   0  0
    7.3597    3.3590   -0.0041 C   0  0
    7.1478    1.8838    0.3535 C   0  0
    5.6687    1.5826    0.6450 C   0  0
   -2.7951    0.2930   -0.9285 N   0  0
   -4.2189    0.6228   -1.0487 C   0  0
   -4.9496   -0.7250   -0.9220 C   0  0
   -3.8868   -1.7295   -0.7796 N   0  0
   -2.6367   -1.0912   -0.7750 C   0  0
   -1.5693   -1.6518   -0.6568 O   0  0
   -4.0941   -3.0955   -0.6708 C   0  0
   -3.2287   -4.0034   -1.3154 C   0  0
   -3.4254   -5.3855   -1.1950 C   0  0
   -4.4961   -5.8905   -0.4374 C   0  0
   -5.3806   -4.9904    0.2068 C   0  0
   -5.1737   -3.6026    0.0843 C   0  0
   -4.6735   -7.6012   -0.3299 Cl  0  0
   -6.7212   -5.5287    1.1474 Cl  0  0
   -0.6015    3.8261   -2.7959 H   0  0
   -0.7739    0.4106    0.7867 H   0  0
   -2.4732    2.2746   -2.7129 H   0  0
    0.7826    5.5804   -1.9970 H   0  0
    2.5420    5.4092   -1.8774 H   0  0
    1.6598    4.4413   -3.0693 H   0  0
    3.1216    2.0088    1.7546 H   0  0
    2.6642    3.3585    0.7656 H   0  0
    2.9056    1.7582   -1.2997 H   0  0
    3.3718    0.4974   -0.2031 H   0  0
    4.3375    3.6523   -1.6925 H   0  0
    4.6099    4.0442   -0.0046 H   0  0
    6.5147    4.8385   -1.3371 H   0  0
    6.7240    3.2633   -2.0640 H   0  0
    7.1603    3.9778    0.8712 H   0  0
    8.3974    3.5359   -0.2865 H   0  0
    7.7595    1.6205    1.2168 H   0  0
    7.4918    1.2589   -0.4715 H   0  0
    5.5481    0.5120    0.8202 H   0  0
    5.3611    2.0942    1.5579 H   0  0
   -4.5124    1.3087   -0.2657 H   0  0
   -4.4227    1.0865   -2.0034 H   0  0
   -5.5965   -0.7310   -0.0555 H   0  0
   -5.5482   -0.9362   -1.7977 H   0  0
   -2.3994   -3.6544   -1.9137 H   0  0
   -2.7400   -6.0539   -1.6960 H   0  0
   -5.8507   -2.9193    0.5795 H   0  0
  1  2  2  0
  1 32  1  0
  2  3  1  0
  2  7  1  0
  3  4  2  0
  3  9  1  0
  4  5  1  0
  4 33  1  0
  5  6  2  0
  5 18  1  0
  6  1  1  0
  6 34  1  0
  7  8  1  0
  8 35  1  0
  8 36  1  0
  8 37  1  0
  9 10  1  0
 10 11  1  0
 10 38  1  0
 10 39  1  0
 11 12  1  0
 11 40  1  0
 11 41  1  0
 12 13  1  0
 12 17  1  0
 13 14  1  0
 13 42  1  0
 13 43  1  0
 14 15  1  0
 14 44  1  0
 14 45  1  0
 15 16  1  0
 15 46  1  0
 15 47  1  0
 16 17  1  0
 16 48  1  0
 16 49  1  0
 17 50  1  0
 17 51  1  0
 18 19  1  0
 18 22  1  0
 19 20  1  0
 19 52  1  0
 19 53  1  0
 20 21  1  0
 20 54  1  0
 20 55  1  0
 21 22  1  0
 21 24  1  0
 22 23  2  0
 24 25  2  0
 24 29  1  0
 25 26  1  0
 25 56  1  0
 26 27  2  0
 26 57  1  0
 27 28  1  0
 27 30  1  0
 28 29  2  0
 28 31  1  0
 29 58  1  0
M  END
> <Name>
5HT2c_ligand3

> <AbsoluteEnergy>
50.8662

> <ConfNumber>
16

> <FitValue>
1.98526

> <HBA_5>
1

> <HBA_5_atom>
9

> <HBA_5_fit>
0.476508

> <HBA_6>
1

> <HBA_6_atom>
23

> <HBA_6_fit>
-0.706094

> <HYDROPHOBIC_2>
1

> <HYDROPHOBIC_2_atom>
5

> <HYDROPHOBIC_2_fit>
0.155893

> <HYDROPHOBIC_3>
1

> <HYDROPHOBIC_3_atom>
24

> <HYDROPHOBIC_3_fit>
0.231217

> <HYDROPHOBIC_4>
1

> <HYDROPHOBIC_4_atom>
.

> <HYDROPHOBIC_4_fit>
0.873207

> <MapNumber>
1

> <MappedAtoms>
12,4.697,2.136,-0.791,1.7,PosIonizable_1.11
5,-3.22,0.56,-1.52,1.7,HYDROPHOBIC_2.11
24,0.14,4.92,-1.84,1.7,HYDROPHOBIC_3.11
9,1.691,1.701,0.631,1.7,HBA_5.11
9,2.42,-0.58,2.48,2.3,HBA_5.21
23,-1.144,-2.321,0.783,1.7,HBA_6.11
23,-0.7,-4.96,2.14,2.3,HBA_6.21

> <MappedFeatures>
PosIonizable_1,HYDROPHOBIC_2,HYDROPHOBIC_3,HYDROPHOBIC_4,HBA_5,HBA_6

> <MappedLocations>
HBA_5.11,HBA_5.21,HBA_6.11,HBA_6.21,HYDROPHOBIC_2.11,HYDROPHOBIC_3.11,HYDROPHOBIC_4.11,PosIonizable_1.11

> <MappingID>
1

> <MaxOmitFeat>
0

> <OBJECTID>
9223372582318964738

> <Pharmprint>
'111111'

> <Pharmtype>
6

> <PosIonizable_1>
1

> <PosIonizable_1_atom>
12

> <PosIonizable_1_fit>
0.954528

> <Principal>
2

> <RelativeEnergy>
2.8222

$$$$
