5HT2c_ligand1
  SciTegic09262214453D

 76 80  0  0  0  0            999 V2000
   -5.8644   -0.2836   -7.6644 C   0  0
   -6.7008   -0.3986   -8.8002 C   0  0
   -6.2314   -0.4244  -10.1199 C   0  0
   -4.8270   -0.3204  -10.2875 C   0  0
   -3.9388   -0.1998   -9.1804 C   0  0
   -4.4610   -0.1827   -7.8615 C   0  0
   -7.3148   -0.5610  -11.1560 C   0  0
   -8.5864   -0.6223  -10.2864 C   0  0
   -8.1733   -0.5122   -8.8673 N   0  0
   -9.0776   -0.5147   -7.7617 C   0  0
   -8.6427   -0.4198   -6.6373 O   0  0
  -10.4429   -0.6325   -8.0037 N   0  0
  -11.4845   -0.6375   -7.0749 C   0  0
  -12.7477   -1.1140   -7.4917 C   0  0
  -13.8354   -1.1500   -6.6064 C   0  0
  -13.6916   -0.7091   -5.2790 C   0  0
  -12.4372   -0.2212   -4.8464 C   0  0
  -11.3493   -0.1833   -5.7414 C   0  0
  -14.8693   -0.7651   -4.3537 C   0  0
  -12.2017    0.3373   -3.2356 Cl  0  0
   -2.5975   -0.0991   -9.3217 O   0  0
   -1.9661   -0.0996  -10.6054 C   0  0
   -3.5747   -0.0680   -6.8471 O   0  0
   -3.9730   -0.0615   -5.4730 C   0  0
   -2.7111    0.0876   -4.6059 C   0  0
   -2.9692    0.0724   -3.1578 N   0  0
   -3.4445   -1.2240   -2.6467 C   0  0
   -3.4512   -1.2404   -1.1096 C   0  0
   -4.2751   -0.0689   -0.5412 C   0  0
   -3.7839    1.2612   -1.1408 C   0  0
   -3.7705    1.2101   -2.6774 C   0  0
   -4.2977   -0.0341    0.9380 N   0  0
   -5.1991   -1.0379    1.5311 C   0  0
   -5.4096   -0.7765    3.0312 C   0  0
   -4.0753   -0.7115    3.7823 C   0  0
   -3.1311    0.2887    3.1062 C   0  0
   -2.9811   -0.0082    1.6057 C   0  0
   -6.2791   -0.2725   -6.6690 H   0  0
   -4.4410   -0.3358  -11.2955 H   0  0
   -7.3170    0.2914  -11.8200 H   0  0
   -7.1754   -1.4613  -11.7375 H   0  0
   -9.1117   -1.5537  -10.4458 H   0  0
   -9.2577    0.1867  -10.5382 H   0  0
  -10.7276   -0.7384   -8.9584 H   0  0
  -12.9018   -1.4629   -8.5036 H   0  0
  -14.7875   -1.5221   -6.9565 H   0  0
  -10.4135    0.2085   -5.3740 H   0  0
  -15.1173    0.2325   -3.9892 H   0  0
  -15.7589   -1.1663   -4.8424 H   0  0
  -14.6511   -1.4025   -3.4960 H   0  0
   -2.3147    0.7491  -11.1968 H   0  0
   -0.8889   -0.0102  -10.4662 H   0  0
   -2.1747   -1.0350  -11.1273 H   0  0
   -4.4909   -0.9959   -5.2510 H   0  0
   -4.6589    0.7707   -5.3050 H   0  0
   -2.2030    1.0178   -4.8636 H   0  0
   -2.0087   -0.7112   -4.8467 H   0  0
   -4.4474   -1.4237   -3.0249 H   0  0
   -2.7979   -2.0216   -3.0139 H   0  0
   -3.8485   -2.1927   -0.7578 H   0  0
   -2.4205   -1.1847   -0.7580 H   0  0
   -5.3024   -0.1954   -0.8886 H   0  0
   -2.7761    1.4930   -0.7965 H   0  0
   -4.4204    2.0814   -0.8068 H   0  0
   -4.7901    1.1280   -3.0561 H   0  0
   -3.3561    2.1403   -3.0681 H   0  0
   -6.1645   -1.0139    1.0242 H   0  0
   -4.7843   -2.0354    1.3799 H   0  0
   -6.0415   -1.5544    3.4606 H   0  0
   -5.9452    0.1648    3.1633 H   0  0
   -3.6133   -1.6995    3.7888 H   0  0
   -4.2387   -0.4355    4.8241 H   0  0
   -2.1548    0.2643    3.5910 H   0  0
   -3.5168    1.3000    3.2408 H   0  0
   -2.3411    0.7488    1.1556 H   0  0
   -2.4834   -0.9694    1.4730 H   0  0
  1  2  2  0
  1 38  1  0
  2  3  1  0
  2  9  1  0
  3  4  2  0
  3  7  1  0
  4  5  1  0
  4 39  1  0
  5  6  2  0
  5 21  1  0
  6  1  1  0
  6 23  1  0
  7  8  1  0
  7 40  1  0
  7 41  1  0
  8  9  1  0
  8 42  1  0
  8 43  1  0
  9 10  1  0
 10 11  2  0
 10 12  1  0
 12 13  1  0
 12 44  1  0
 13 14  2  0
 13 18  1  0
 14 15  1  0
 14 45  1  0
 15 16  2  0
 15 46  1  0
 16 17  1  0
 16 19  1  0
 17 18  2  0
 17 20  1  0
 18 47  1  0
 19 48  1  0
 19 49  1  0
 19 50  1  0
 21 22  1  0
 22 51  1  0
 22 52  1  0
 22 53  1  0
 23 24  1  0
 24 25  1  0
 24 54  1  0
 24 55  1  0
 25 26  1  0
 25 56  1  0
 25 57  1  0
 26 27  1  0
 26 31  1  0
 27 28  1  0
 27 58  1  0
 27 59  1  0
 28 29  1  0
 28 60  1  0
 28 61  1  0
 29 30  1  0
 29 32  1  0
 29 62  1  0
 30 31  1  0
 30 63  1  0
 30 64  1  0
 31 65  1  0
 31 66  1  0
 32 33  1  0
 32 37  1  0
 33 34  1  0
 33 67  1  0
 33 68  1  0
 34 35  1  0
 34 69  1  0
 34 70  1  0
 35 36  1  0
 35 71  1  0
 35 72  1  0
 36 37  1  0
 36 73  1  0
 36 74  1  0
 37 75  1  0
 37 76  1  0
M  END
> <Name>
5HT2c_ligand1

> <AbsoluteEnergy>
67.394

> <ConfNumber>
3

> <FitValue>
5.99919

> <HBA_5>
1

> <HBA_5_atom>
11

> <HBA_5_fit>
0.999982

> <HBA_6>
1

> <HBA_6_atom>
23

> <HBA_6_fit>
0.999909

> <HYDROPHOBIC_2>
1

> <HYDROPHOBIC_2_atom>
22

> <HYDROPHOBIC_2_fit>
0.999918

> <HYDROPHOBIC_3>
1

> <HYDROPHOBIC_3_atom>
22

> <HYDROPHOBIC_3_fit>
0.999556

> <HYDROPHOBIC_4>
1

> <HYDROPHOBIC_4_atom>
.

> <HYDROPHOBIC_4_fit>
0.999887

> <MapNumber>
1

> <MappedAtoms>
26,-2.981,0.07,-3.151,1.7,PosIonizable_1.11
22,-7.46,-0.56,-10.58,1.7,HYDROPHOBIC_2.11
22,-1.94,-0.08,-10.62,1.7,HYDROPHOBIC_3.11
11,-8.649,-0.419,-6.641,1.7,HBA_5.11
11,-7.56,-0.18,-3.84,2.3,HBA_5.21
23,-3.58,-0.074,-6.842,1.7,HBA_6.11
23,-0.66,0.16,-7.52,2.3,HBA_6.21

> <MappedFeatures>
PosIonizable_1,HYDROPHOBIC_2,HYDROPHOBIC_3,HYDROPHOBIC_4,HBA_5,HBA_6

> <MappedLocations>
HBA_5.11,HBA_5.21,HBA_6.11,HBA_6.21,HYDROPHOBIC_2.11,HYDROPHOBIC_3.11,HYDROPHOBIC_4.11,PosIonizable_1.11

> <MappingID>
1

> <MaxOmitFeat>
0

> <OBJECTID>
9223372599498833922

> <Pharmprint>
'111111'

> <Pharmtype>
6

> <PosIonizable_1>
1

> <PosIonizable_1_atom>
26

> <PosIonizable_1_fit>
0.999934

> <Principal>
2

> <RelativeEnergy>
0.313167

$$$$
5HT2c_ligand2
  SciTegic09262214453D

 62 65  0  0  0  0            999 V2000
   -5.8776    0.3916   -7.2457 C   0  0
   -6.8301    0.0173   -8.2143 C   0  0
   -6.5264   -0.2966   -9.5427 C   0  0
   -5.1464   -0.2705   -9.8817 C   0  0
   -4.1321    0.0282   -8.9215 C   0  0
   -4.5011    0.3606   -7.5896 C   0  0
   -7.7390   -0.6310  -10.3773 C   0  0
   -8.8751   -0.5988   -9.3280 C   0  0
   -8.2826   -0.1659   -8.0481 N   0  0
   -9.0181   -0.0050   -6.8430 C   0  0
   -8.4785    0.4197   -5.8485 O   0  0
   -2.8124    0.0036   -9.2167 O   0  0
   -2.3294   -0.3702  -10.5101 C   0  0
   -3.5122    0.5943   -6.6947 O   0  0
   -3.7510    1.2034   -5.4161 C   0  0
   -2.6027    0.8835   -4.4437 C   0  0
   -2.9045   -0.3298   -3.6615 N   0  0
   -2.8125   -1.5811   -4.4334 C   0  0
   -3.3202   -2.7769   -3.6096 C   0  0
   -2.5913   -2.8970   -2.2604 C   0  0
   -2.6306   -1.5511   -1.5201 C   0  0
   -2.1379   -0.3966   -2.4076 C   0  0
   -3.1922   -3.9507   -1.4408 N   0  0
  -10.4463   -0.3834   -6.7717 C   0  0
  -11.2040   -0.2003   -5.6688 C   0  0
  -12.5870   -0.7763   -5.5171 C   0  0
  -12.8681   -2.1460   -5.7701 C   0  0
  -14.1859   -2.6234   -5.6395 C   0  0
  -15.2177   -1.7587   -5.2419 C   0  0
  -14.9366   -0.4121   -4.9618 C   0  0
  -13.6269    0.0747   -5.0954 C   0  0
  -11.6421   -3.2724   -6.2135 Cl  0  0
   -6.2061    0.6776   -6.2639 H   0  0
   -4.8816   -0.4945  -10.9040 H   0  0
   -7.8858    0.1078  -11.1526 H   0  0
   -7.6406   -1.6040  -10.8353 H   0  0
   -9.3069   -1.5836   -9.2129 H   0  0
   -9.6623    0.0819   -9.6220 H   0  0
   -2.6934    0.3283  -11.2648 H   0  0
   -1.2389   -0.3391  -10.4981 H   0  0
   -2.6466   -1.3869  -10.7519 H   0  0
   -4.6768    0.8483   -4.9636 H   0  0
   -3.8476    2.2789   -5.5691 H   0  0
   -2.4912    1.7295   -3.7629 H   0  0
   -1.6507    0.7755   -4.9642 H   0  0
   -3.4118   -1.5018   -5.3402 H   0  0
   -1.7785   -1.7448   -4.7452 H   0  0
   -3.1970   -3.6947   -4.1850 H   0  0
   -4.3915   -2.6605   -3.4401 H   0  0
   -1.5479   -3.1577   -2.4500 H   0  0
   -2.0243   -1.6018   -0.6149 H   0  0
   -3.6501   -1.3383   -1.1940 H   0  0
   -2.2462    0.5398   -1.8592 H   0  0
   -1.0763   -0.5158   -2.6325 H   0  0
   -2.6802   -4.0208   -0.5494 H   0  0
   -3.1044   -4.8538   -1.9305 H   0  0
  -10.9001   -0.8453   -7.6363 H   0  0
  -10.8065    0.3841   -4.8488 H   0  0
  -14.4162   -3.6616   -5.8386 H   0  0
  -16.2276   -2.1310   -5.1509 H   0  0
  -15.7306    0.2488   -4.6451 H   0  0
  -13.4241    1.1127   -4.8753 H   0  0
  1  2  2  0
  1 33  1  0
  2  3  1  0
  2  9  1  0
  3  4  2  0
  3  7  1  0
  4  5  1  0
  4 34  1  0
  5  6  2  0
  5 12  1  0
  6  1  1  0
  6 14  1  0
  7  8  1  0
  7 35  1  0
  7 36  1  0
  8  9  1  0
  8 37  1  0
  8 38  1  0
  9 10  1  0
 10 11  2  0
 10 24  1  0
 12 13  1  0
 13 39  1  0
 13 40  1  0
 13 41  1  0
 14 15  1  0
 15 16  1  0
 15 42  1  0
 15 43  1  0
 16 17  1  0
 16 44  1  0
 16 45  1  0
 17 18  1  0
 17 22  1  0
 18 19  1  0
 18 46  1  0
 18 47  1  0
 19 20  1  0
 19 48  1  0
 19 49  1  0
 20 21  1  0
 20 23  1  0
 20 50  1  0
 21 22  1  0
 21 51  1  0
 21 52  1  0
 22 53  1  0
 22 54  1  0
 23 55  1  0
 23 56  1  0
 24 25  2  0
 24 57  1  0
 25 26  1  0
 25 58  1  0
 26 27  2  0
 26 31  1  0
 27 28  1  0
 27 32  1  0
 28 29  2  0
 28 59  1  0
 29 30  1  0
 29 60  1  0
 30 31  2  0
 30 61  1  0
 31 62  1  0
M  END
> <Name>
5HT2c_ligand2

> <AbsoluteEnergy>
74.038

> <ConfNumber>
34

> <FitValue>
4.43953

> <HBA_5>
1

> <HBA_5_atom>
11

> <HBA_5_fit>
0.469334

> <HBA_6>
1

> <HBA_6_atom>
14

> <HBA_6_fit>
0.905121

> <HYDROPHOBIC_2>
1

> <HYDROPHOBIC_2_atom>
18

> <HYDROPHOBIC_2_fit>
0.758637

> <HYDROPHOBIC_3>
1

> <HYDROPHOBIC_3_atom>
13

> <HYDROPHOBIC_3_fit>
0.914204

> <HYDROPHOBIC_4>
1

> <HYDROPHOBIC_4_atom>
.

> <HYDROPHOBIC_4_fit>
0.539759

> <MapNumber>
1

> <MappedAtoms>
17,-2.981,0.07,-3.151,1.7,PosIonizable_1.11
18,-7.46,-0.56,-10.58,1.7,HYDROPHOBIC_2.11
13,-1.94,-0.08,-10.62,1.7,HYDROPHOBIC_3.11
11,-8.649,-0.419,-6.641,1.7,HBA_5.11
11,-7.56,-0.18,-3.84,2.3,HBA_5.21
14,-3.58,-0.074,-6.842,1.7,HBA_6.11
14,-0.66,0.16,-7.52,2.3,HBA_6.21

> <MappedFeatures>
PosIonizable_1,HYDROPHOBIC_2,HYDROPHOBIC_3,HYDROPHOBIC_4,HBA_5,HBA_6

> <MappedLocations>
HBA_5.11,HBA_5.21,HBA_6.11,HBA_6.21,HYDROPHOBIC_2.11,HYDROPHOBIC_3.11,HYDROPHOBIC_4.11,PosIonizable_1.11

> <MappingID>
1

> <MaxOmitFeat>
0

> <OBJECTID>
9223372578023997442

> <Pharmprint>
'111111'

> <Pharmtype>
6

> <PosIonizable_1>
1

> <PosIonizable_1_atom>
17

> <PosIonizable_1_fit>
0.852477

> <Principal>
2

> <RelativeEnergy>
8.36494

$$$$
5HT2c_ligand6
  SciTegic09262214453D

 51 54  0  0  0  0            999 V2000
   -5.9737   -0.2196   -7.1147 C   0  0
   -4.6126   -0.2908   -7.5516 C   0  0
   -4.3231   -0.3561   -8.9485 C   0  0
   -5.3893   -0.3478   -9.8981 C   0  0
   -6.7221   -0.2670   -9.4336 C   0  0
   -7.0050   -0.2049   -8.0909 C   0  0
   -8.3947   -0.1299   -8.0524 N   0  0
   -8.9394   -0.1407   -9.3552 C   0  0
   -7.8328   -0.2373  -10.2210 C   0  0
   -3.0225   -0.4222   -9.3152 O   0  0
   -2.6194   -0.4761  -10.6877 C   0  0
   -3.5490   -0.2933   -6.7095 O   0  0
   -3.6707   -0.2286   -5.2808 C   0  0
   -2.2514   -0.1657   -4.6715 C   0  0
   -2.2304   -0.0136   -3.2006 N   0  0
   -2.6252   -1.2467   -2.4884 C   0  0
   -2.6618   -1.0406   -0.9634 C   0  0
   -1.3285   -0.5067   -0.4327 C   0  0
   -0.9181    0.7460   -1.2105 C   0  0
   -0.9249    0.4912   -2.7272 C   0  0
   -9.1750   -0.0158   -6.8453 C   0  0
   -8.7271    0.5417   -5.8705 O   0  0
  -10.5430   -0.5658   -6.7725 C   0  0
  -11.6221   -0.1530   -5.5259 S   0  0
  -12.9180   -1.1055   -6.0907 C   0  0
  -12.4939   -1.7638   -7.2631 C   0  0
  -11.1663   -1.4756   -7.6441 C   0  0
  -14.5203   -1.4038   -5.5583 Cl  0  0
   -6.2199   -0.1774   -6.0644 H   0  0
   -5.1912   -0.3998  -10.9597 H   0  0
   -9.9881   -0.0791   -9.6130 H   0  0
   -7.8689   -0.2772  -11.3024 H   0  0
   -2.9535    0.4190  -11.2148 H   0  0
   -1.5302   -0.5198  -10.7318 H   0  0
   -3.0239   -1.3704  -11.1651 H   0  0
   -4.2156   -1.1062   -4.9318 H   0  0
   -4.2356    0.6649   -5.0084 H   0  0
   -1.7348    0.6812   -5.1259 H   0  0
   -1.6826   -1.0530   -4.9543 H   0  0
   -3.6098   -1.5688   -2.8248 H   0  0
   -1.9275   -2.0476   -2.7356 H   0  0
   -2.9076   -1.9799   -0.4656 H   0  0
   -3.4585   -0.3404   -0.7097 H   0  0
   -0.5588   -1.2716   -0.5405 H   0  0
   -1.4033   -0.2853    0.6324 H   0  0
    0.0713    1.0736   -0.8915 H   0  0
   -1.6038    1.5611   -0.9737 H   0  0
   -0.6850    1.4220   -3.2436 H   0  0
   -0.1431   -0.2243   -2.9861 H   0  0
  -13.1191   -2.4385   -7.8349 H   0  0
  -10.7156   -1.9316   -8.5148 H   0  0
  1  2  2  0
  1 29  1  0
  2  3  1  0
  2 12  1  0
  3  4  2  0
  3 10  1  0
  4  5  1  0
  4 30  1  0
  5  6  2  0
  5  9  1  0
  6  1  1  0
  6  7  1  0
  7  8  1  0
  7 21  1  0
  8  9  2  0
  8 31  1  0
  9 32  1  0
 10 11  1  0
 11 33  1  0
 11 34  1  0
 11 35  1  0
 12 13  1  0
 13 14  1  0
 13 36  1  0
 13 37  1  0
 14 15  1  0
 14 38  1  0
 14 39  1  0
 15 16  1  0
 15 20  1  0
 16 17  1  0
 16 40  1  0
 16 41  1  0
 17 18  1  0
 17 42  1  0
 17 43  1  0
 18 19  1  0
 18 44  1  0
 18 45  1  0
 19 20  1  0
 19 46  1  0
 19 47  1  0
 20 48  1  0
 20 49  1  0
 21 22  2  0
 21 23  1  0
 23 24  1  0
 23 27  2  0
 24 25  1  0
 25 26  2  0
 25 28  1  0
 26 27  1  0
 26 50  1  0
 27 51  1  0
M  END
> <Name>
5HT2c_ligand6

> <AbsoluteEnergy>
112.674

> <ConfNumber>
9

> <FitValue>
3.77432

> <HBA_5>
1

> <HBA_5_atom>
22

> <HBA_5_fit>
0.303111

> <HBA_6>
1

> <HBA_6_atom>
12

> <HBA_6_fit>
0.939117

> <HYDROPHOBIC_2>
1

> <HYDROPHOBIC_2_atom>
11

> <HYDROPHOBIC_2_fit>
0.647676

> <HYDROPHOBIC_3>
1

> <HYDROPHOBIC_3_atom>
5

> <HYDROPHOBIC_3_fit>
0.784394

> <HYDROPHOBIC_4>
1

> <HYDROPHOBIC_4_atom>
.

> <HYDROPHOBIC_4_fit>
0.298245

> <MapNumber>
1

> <MappedAtoms>
15,-2.981,0.07,-3.151,1.7,PosIonizable_1.11
11,-7.46,-0.56,-10.58,1.7,HYDROPHOBIC_2.11
5,-1.94,-0.08,-10.62,1.7,HYDROPHOBIC_3.11
22,-8.649,-0.419,-6.641,1.7,HBA_5.11
22,-7.56,-0.18,-3.84,2.3,HBA_5.21
12,-3.58,-0.074,-6.842,1.7,HBA_6.11
12,-0.66,0.16,-7.52,2.3,HBA_6.21

> <MappedFeatures>
PosIonizable_1,HYDROPHOBIC_2,HYDROPHOBIC_3,HYDROPHOBIC_4,HBA_5,HBA_6

> <MappedLocations>
HBA_5.11,HBA_5.21,HBA_6.11,HBA_6.21,HYDROPHOBIC_2.11,HYDROPHOBIC_3.11,HYDROPHOBIC_4.11,PosIonizable_1.11

> <MappingID>
1

> <MaxOmitFeat>
0

> <OBJECTID>
9223372595203866626

> <Pharmprint>
'111111'

> <Pharmtype>
6

> <PosIonizable_1>
1

> <PosIonizable_1_atom>
15

> <PosIonizable_1_fit>
0.80178

> <Principal>
2

> <RelativeEnergy>
3.56851

$$$$
5HT2c_ligand5
  SciTegic09262214453D

 57 60  0  0  0  0            999 V2000
   -6.2033   -0.9359   -8.0755 C   0  0
   -4.8367   -0.6262   -8.2497 C   0  0
   -4.3463   -0.3838   -9.5498 C   0  0
   -5.2417   -0.4255  -10.6448 C   0  0
   -6.6047   -0.7010  -10.4508 C   0  0
   -7.1027   -0.9548   -9.1596 C   0  0
   -3.0497   -0.1192   -9.6863 O   0  0
   -2.4551    0.1555  -10.9584 C   0  0
   -3.9924   -0.5445   -7.2208 O   0  0
   -4.4499   -0.6210   -5.8639 C   0  0
   -3.2904   -0.3727   -4.8837 C   0  0
   -3.7385   -0.2341   -3.4843 N   0  0
   -4.4567   -1.4159   -2.9721 C   0  0
   -4.7411   -1.2953   -1.4665 C   0  0
   -5.4847    0.0038   -1.1377 C   0  0
   -4.7304    1.2072   -1.7143 C   0  0
   -4.4520    1.0284   -3.2158 C   0  0
   -8.4479   -1.2208   -8.9431 N   0  0
   -9.1871   -0.8368   -7.8068 C   0  0
  -10.5431   -1.3759   -7.9462 C   0  0
  -10.6410   -2.0052   -9.1326 C   0  0
   -9.3202   -1.9582   -9.8684 C   0  0
   -8.7492   -0.1746   -6.8930 O   0  0
  -11.6470   -1.2541   -6.9186 C   0  0
  -12.9922   -1.4762   -7.2760 C   0  0
  -14.0128   -1.3579   -6.3186 C   0  0
  -13.7091   -1.0165   -4.9883 C   0  0
  -12.3616   -0.7963   -4.6159 C   0  0
  -11.3456   -0.9197   -5.5818 C   0  0
  -15.0074   -0.8844   -3.8643 Cl  0  0
  -11.8954   -0.3798   -3.0095 Cl  0  0
   -6.5687   -1.1628   -7.0852 H   0  0
   -4.8959   -0.2447  -11.6512 H   0  0
   -7.2585   -0.7135  -11.3113 H   0  0
   -2.5709   -0.7021  -11.6235 H   0  0
   -1.3915    0.3439  -10.8146 H   0  0
   -2.9100    1.0433  -11.4043 H   0  0
   -5.2296    0.1286   -5.7199 H   0  0
   -4.8814   -1.6087   -5.6914 H   0  0
   -2.5751   -1.1933   -4.9504 H   0  0
   -2.7481    0.5271   -5.1755 H   0  0
   -3.8653   -2.3126   -3.1615 H   0  0
   -5.3995   -1.5338   -3.5078 H   0  0
   -5.3227   -2.1521   -1.1267 H   0  0
   -3.8007   -1.3226   -0.9147 H   0  0
   -6.4891   -0.0337   -1.5613 H   0  0
   -5.6023    0.1117   -0.0591 H   0  0
   -5.3033    2.1197   -1.5478 H   0  0
   -3.7874    1.3334   -1.1811 H   0  0
   -3.8580    1.8688   -3.5762 H   0  0
   -5.3955    1.0458   -3.7620 H   0  0
  -11.5180   -2.4896   -9.5352 H   0  0
   -9.4302   -1.4377  -10.8096 H   0  0
   -8.9443   -2.9554  -10.0517 H   0  0
  -13.2618   -1.7375   -8.2885 H   0  0
  -15.0354   -1.5332   -6.6228 H   0  0
  -10.3233   -0.7572   -5.2785 H   0  0
  1  2  2  0
  1 32  1  0
  2  3  1  0
  2  9  1  0
  3  4  2  0
  3  7  1  0
  4  5  1  0
  4 33  1  0
  5  6  2  0
  5 34  1  0
  6  1  1  0
  6 18  1  0
  7  8  1  0
  8 35  1  0
  8 36  1  0
  8 37  1  0
  9 10  1  0
 10 11  1  0
 10 38  1  0
 10 39  1  0
 11 12  1  0
 11 40  1  0
 11 41  1  0
 12 13  1  0
 12 17  1  0
 13 14  1  0
 13 42  1  0
 13 43  1  0
 14 15  1  0
 14 44  1  0
 14 45  1  0
 15 16  1  0
 15 46  1  0
 15 47  1  0
 16 17  1  0
 16 48  1  0
 16 49  1  0
 17 50  1  0
 17 51  1  0
 18 19  1  0
 18 22  1  0
 19 20  1  0
 19 23  2  0
 20 21  2  0
 20 24  1  0
 21 22  1  0
 21 52  1  0
 22 53  1  0
 22 54  1  0
 24 25  2  0
 24 29  1  0
 25 26  1  0
 25 55  1  0
 26 27  2  0
 26 56  1  0
 27 28  1  0
 27 30  1  0
 28 29  2  0
 28 31  1  0
 29 57  1  0
M  END
> <Name>
5HT2c_ligand5

> <AbsoluteEnergy>
52.6559

> <ConfNumber>
6

> <FitValue>
3.69509

> <HBA_5>
1

> <HBA_5_atom>
23

> <HBA_5_fit>
0.660939

> <HBA_6>
1

> <HBA_6_atom>
9

> <HBA_6_fit>
0.875082

> <HYDROPHOBIC_2>
1

> <HYDROPHOBIC_2_atom>
5

> <HYDROPHOBIC_2_fit>
-0.332017

> <HYDROPHOBIC_3>
1

> <HYDROPHOBIC_3_atom>
8

> <HYDROPHOBIC_3_fit>
0.84936

> <HYDROPHOBIC_4>
1

> <HYDROPHOBIC_4_atom>
30

> <HYDROPHOBIC_4_fit>
0.910714

> <MapNumber>
1

> <MappedAtoms>
12,-2.981,0.07,-3.151,1.7,PosIonizable_1.11
5,-7.46,-0.56,-10.58,1.7,HYDROPHOBIC_2.11
8,-1.94,-0.08,-10.62,1.7,HYDROPHOBIC_3.11
30,-14.88,-0.76,-4.34,1.7,HYDROPHOBIC_4.11
23,-8.649,-0.419,-6.641,1.7,HBA_5.11
23,-7.56,-0.18,-3.84,2.3,HBA_5.21
9,-3.58,-0.074,-6.842,1.7,HBA_6.11
9,-0.66,0.16,-7.52,2.3,HBA_6.21

> <MappedFeatures>
PosIonizable_1,HYDROPHOBIC_2,HYDROPHOBIC_3,HYDROPHOBIC_4,HBA_5,HBA_6

> <MappedLocations>
HBA_5.11,HBA_5.21,HBA_6.11,HBA_6.21,HYDROPHOBIC_2.11,HYDROPHOBIC_3.11,HYDROPHOBIC_4.11,PosIonizable_1.11

> <MappingID>
1

> <MaxOmitFeat>
0

> <OBJECTID>
9223372590908899330

> <Pharmprint>
'111111'

> <Pharmtype>
6

> <PosIonizable_1>
1

> <PosIonizable_1_atom>
12

> <PosIonizable_1_fit>
0.731017

> <Principal>
2

> <RelativeEnergy>
1.32459

$$$$
5HT2c_ligand3
  SciTegic09262214453D

 58 61  0  0  0  0            999 V2000
   -5.3214   -0.6399  -10.4781 C   0  0
   -4.4052   -0.4379   -9.4199 C   0  0
   -4.8168   -0.6815   -8.0930 C   0  0
   -6.1352   -1.1308   -7.8483 C   0  0
   -7.0471   -1.3279   -8.9028 C   0  0
   -6.6291   -1.0791  -10.2223 C   0  0
   -3.1568   -0.0213   -9.6162 O   0  0
   -2.6357    0.2553  -10.9200 C   0  0
   -3.9357   -0.4742   -7.1151 O   0  0
   -4.2597   -0.6946   -5.7369 C   0  0
   -3.0452   -0.3458   -4.8572 C   0  0
   -3.2907   -0.5344   -3.4156 N   0  0
   -3.5445   -1.9346   -3.0329 C   0  0
   -3.5980   -2.0955   -1.5053 C   0  0
   -4.6237   -1.1450   -0.8786 C   0  0
   -4.3604    0.2951   -1.3303 C   0  0
   -4.2883    0.3999   -2.8616 C   0  0
   -8.3333   -1.7656   -8.6361 N   0  0
   -8.9848   -2.8987   -9.3019 C   0  0
  -10.3707   -3.0080   -8.6408 C   0  0
  -10.4040   -1.9272   -7.6498 N   0  0
   -9.2010   -1.2090   -7.6849 C   0  0
   -8.9478   -0.2497   -6.9897 O   0  0
  -11.4642   -1.6704   -6.8005 C   0  0
  -12.7724   -1.5328   -7.3060 C   0  0
  -13.8443   -1.2717   -6.4363 C   0  0
  -13.6269   -1.1430   -5.0521 C   0  0
  -12.3157   -1.2805   -4.5340 C   0  0
  -11.2474   -1.5462   -5.4118 C   0  0
  -14.9858   -0.8189   -4.0436 Cl  0  0
  -11.9603   -1.1370   -2.8539 Cl  0  0
   -5.0354   -0.4613  -11.5039 H   0  0
   -6.4550   -1.3292   -6.8354 H   0  0
   -7.3048   -1.2195  -11.0553 H   0  0
   -2.6621   -0.6449  -11.5367 H   0  0
   -1.6002    0.5804  -10.8215 H   0  0
   -3.2078    1.0547  -11.3929 H   0  0
   -5.1147   -0.0707   -5.4749 H   0  0
   -4.5356   -1.7426   -5.6038 H   0  0
   -2.1930   -0.9581   -5.1553 H   0  0
   -2.7511    0.6884   -5.0347 H   0  0
   -2.7599   -2.5735   -3.4401 H   0  0
   -4.4891   -2.2701   -3.4658 H   0  0
   -3.8396   -3.1267   -1.2470 H   0  0
   -2.6120   -1.8945   -1.0848 H   0  0
   -5.6293   -1.4426   -1.1795 H   0  0
   -4.5905   -1.2140    0.2097 H   0  0
   -5.1399    0.9552   -0.9473 H   0  0
   -3.4214    0.6448   -0.8970 H   0  0
   -4.0303    1.4209   -3.1439 H   0  0
   -5.2700    0.1868   -3.2853 H   0  0
   -8.4063   -3.8001   -9.1586 H   0  0
   -9.0755   -2.7153  -10.3638 H   0  0
  -10.5006   -3.9662   -8.1551 H   0  0
  -11.1591   -2.8825   -9.3680 H   0  0
  -12.9702   -1.6252   -8.3654 H   0  0
  -14.8373   -1.1710   -6.8506 H   0  0
  -10.2465   -1.6555   -5.0135 H   0  0
  1  2  2  0
  1 32  1  0
  2  3  1  0
  2  7  1  0
  3  4  2  0
  3  9  1  0
  4  5  1  0
  4 33  1  0
  5  6  2  0
  5 18  1  0
  6  1  1  0
  6 34  1  0
  7  8  1  0
  8 35  1  0
  8 36  1  0
  8 37  1  0
  9 10  1  0
 10 11  1  0
 10 38  1  0
 10 39  1  0
 11 12  1  0
 11 40  1  0
 11 41  1  0
 12 13  1  0
 12 17  1  0
 13 14  1  0
 13 42  1  0
 13 43  1  0
 14 15  1  0
 14 44  1  0
 14 45  1  0
 15 16  1  0
 15 46  1  0
 15 47  1  0
 16 17  1  0
 16 48  1  0
 16 49  1  0
 17 50  1  0
 17 51  1  0
 18 19  1  0
 18 22  1  0
 19 20  1  0
 19 52  1  0
 19 53  1  0
 20 21  1  0
 20 54  1  0
 20 55  1  0
 21 22  1  0
 21 24  1  0
 22 23  2  0
 24 25  2  0
 24 29  1  0
 25 26  1  0
 25 56  1  0
 26 27  2  0
 26 57  1  0
 27 28  1  0
 27 30  1  0
 28 29  2  0
 28 31  1  0
 29 58  1  0
M  END
> <Name>
5HT2c_ligand3

> <AbsoluteEnergy>
48.044

> <ConfNumber>
1

> <FitValue>
3.20894

> <HBA_5>
1

> <HBA_5_atom>
23

> <HBA_5_fit>
0.199568

> <HBA_6>
1

> <HBA_6_atom>
9

> <HBA_6_fit>
0.896092

> <HYDROPHOBIC_2>
1

> <HYDROPHOBIC_2_atom>
6

> <HYDROPHOBIC_2_fit>
-0.435807

> <HYDROPHOBIC_3>
1

> <HYDROPHOBIC_3_atom>
8

> <HYDROPHOBIC_3_fit>
0.772876

> <HYDROPHOBIC_4>
1

> <HYDROPHOBIC_4_atom>
30

> <HYDROPHOBIC_4_fit>
0.960021

> <MapNumber>
1

> <MappedAtoms>
12,-2.981,0.07,-3.151,1.7,PosIonizable_1.11
6,-7.46,-0.56,-10.58,1.7,HYDROPHOBIC_2.11
8,-1.94,-0.08,-10.62,1.7,HYDROPHOBIC_3.11
30,-14.88,-0.76,-4.34,1.7,HYDROPHOBIC_4.11
23,-8.649,-0.419,-6.641,1.7,HBA_5.11
23,-7.56,-0.18,-3.84,2.3,HBA_5.21
9,-3.58,-0.074,-6.842,1.7,HBA_6.11
9,-0.66,0.16,-7.52,2.3,HBA_6.21

> <MappedFeatures>
PosIonizable_1,HYDROPHOBIC_2,HYDROPHOBIC_3,HYDROPHOBIC_4,HBA_5,HBA_6

> <MappedLocations>
HBA_5.11,HBA_5.21,HBA_6.11,HBA_6.21,HYDROPHOBIC_2.11,HYDROPHOBIC_3.11,HYDROPHOBIC_4.11,PosIonizable_1.11

> <MappingID>
1

> <MaxOmitFeat>
0

> <OBJECTID>
9223372582318964738

> <Pharmprint>
'111111'

> <Pharmtype>
6

> <PosIonizable_1>
1

> <PosIonizable_1_atom>
12

> <PosIonizable_1_fit>
0.816186

> <Principal>
2

> <RelativeEnergy>
0

$$$$
5HT2c_ligand4
  SciTegic09262214453D

 59 62  0  0  0  0            999 V2000
   -6.3834    0.2040   -7.0310 C   0  0
   -4.9748    0.0833   -7.1888 C   0  0
   -4.4404   -0.2272   -8.4641 C   0  0
   -5.3200   -0.4267   -9.5651 C   0  0
   -6.7343   -0.3399   -9.4354 C   0  0
   -7.2095   -0.0176   -8.1552 C   0  0
   -8.6837   -0.0127   -8.2373 N   0  0
   -9.1113   -0.4142   -9.6009 C   0  0
   -7.8269   -0.5599  -10.4557 C   0  0
   -4.0906    0.2446   -6.1883 O   0  0
   -4.4791    0.3132   -4.8139 C   0  0
   -3.2158    0.4897   -3.9546 C   0  0
   -2.1245   -0.3907   -4.3961 N   0  0
   -0.8119   -0.1236   -3.8153 C   0  0
    0.0163   -1.4068   -3.9903 C   0  0
   -0.9485   -2.4049   -4.6344 C   0  0
   -2.3138   -1.8265   -4.2797 C   0  0
   -3.0921   -0.3412   -8.5531 O   0  0
   -2.4319   -0.5585   -9.7876 C   0  0
   -9.5801    0.2983   -7.1738 C   0  0
   -9.2000    0.7557   -6.1171 O   0  0
  -11.0479    0.0096   -7.4176 C   0  0
  -11.3947   -1.4843   -7.2099 C   0  0
  -11.2558   -1.9474   -5.7702 C   0  0
  -10.0075   -2.4560   -5.2906 C   0  0
   -9.8861   -2.8573   -3.9557 C   0  0
  -10.9895   -2.7896   -3.0860 C   0  0
  -12.2274   -2.3109   -3.5433 C   0  0
  -12.3664   -1.8846   -4.8760 C   0  0
  -13.9211   -1.3044   -5.3417 Cl  0  0
   -8.5792   -2.6197   -6.2591 Cl  0  0
   -6.8083    0.4535   -6.0750 H   0  0
   -4.9197   -0.6658  -10.5363 H   0  0
   -9.7741    0.3446  -10.0225 H   0  0
   -9.6472   -1.3641   -9.5628 H   0  0
   -7.7442   -1.5445  -10.9005 H   0  0
   -7.7722    0.1899  -11.2381 H   0  0
   -4.9951   -0.6084   -4.5436 H   0  0
   -5.1567    1.1558   -4.6626 H   0  0
   -3.4405    0.2992   -2.9093 H   0  0
   -2.8821    1.5238   -4.0346 H   0  0
   -0.3590    0.7365   -4.2934 H   0  0
   -0.9242    0.0993   -2.7624 H   0  0
    0.3593   -1.7772   -3.0340 H   0  0
    0.8837   -1.2444   -4.6114 H   0  0
   -0.8141   -3.4200   -4.2742 H   0  0
   -0.8132   -2.4039   -5.7097 H   0  0
   -3.0973   -2.1640   -4.9438 H   0  0
   -2.5885   -2.0743   -3.2592 H   0  0
   -2.7455   -1.5038  -10.2206 H   0  0
   -1.3539   -0.5865   -9.6164 H   0  0
   -2.6560    0.2526  -10.4767 H   0  0
  -11.3443    0.3286   -8.4138 H   0  0
  -11.6400    0.6152   -6.7352 H   0  0
  -10.7902   -2.1170   -7.8710 H   0  0
  -12.4163   -1.6605   -7.5751 H   0  0
   -8.9398   -3.2230   -3.5842 H   0  0
  -10.8781   -3.1034   -2.0627 H   0  0
  -13.0690   -2.2689   -2.8594 H   0  0
  1  2  2  0
  1 32  1  0
  2  3  1  0
  2 10  1  0
  3  4  2  0
  3 18  1  0
  4  5  1  0
  4 33  1  0
  5  6  2  0
  5  9  1  0
  6  1  1  0
  6  7  1  0
  7  8  1  0
  7 20  1  0
  8  9  1  0
  8 34  1  0
  8 35  1  0
  9 36  1  0
  9 37  1  0
 10 11  1  0
 11 12  1  0
 11 38  1  0
 11 39  1  0
 12 13  1  0
 12 40  1  0
 12 41  1  0
 13 14  1  0
 13 17  1  0
 14 15  1  0
 14 42  1  0
 14 43  1  0
 15 16  1  0
 15 44  1  0
 15 45  1  0
 16 17  1  0
 16 46  1  0
 16 47  1  0
 17 48  1  0
 17 49  1  0
 18 19  1  0
 19 50  1  0
 19 51  1  0
 19 52  1  0
 20 21  2  0
 20 22  1  0
 22 23  1  0
 22 53  1  0
 22 54  1  0
 23 24  1  0
 23 55  1  0
 23 56  1  0
 24 25  2  0
 24 29  1  0
 25 26  1  0
 25 31  1  0
 26 27  2  0
 26 57  1  0
 27 28  1  0
 27 58  1  0
 28 29  2  0
 28 59  1  0
 29 30  1  0
M  END
> <Name>
5HT2c_ligand4

> <AbsoluteEnergy>
70.1822

> <ConfNumber>
21

> <FitValue>
2.77191

> <HBA_5>
1

> <HBA_5_atom>
21

> <HBA_5_fit>
0.200206

> <HBA_6>
1

> <HBA_6_atom>
10

> <HBA_6_fit>
0.788977

> <HYDROPHOBIC_2>
1

> <HYDROPHOBIC_2_atom>
9

> <HYDROPHOBIC_2_fit>
0.817169

> <HYDROPHOBIC_3>
1

> <HYDROPHOBIC_3_atom>
19

> <HYDROPHOBIC_3_fit>
0.597256

> <HYDROPHOBIC_4>
1

> <HYDROPHOBIC_4_atom>
30

> <HYDROPHOBIC_4_fit>
0.232059

> <MapNumber>
1

> <MappedAtoms>
12,-2.981,0.07,-3.151,1.7,PosIonizable_1.11
9,-7.46,-0.56,-10.58,1.7,HYDROPHOBIC_2.11
19,-1.94,-0.08,-10.62,1.7,HYDROPHOBIC_3.11
30,-14.88,-0.76,-4.34,1.7,HYDROPHOBIC_4.11
21,-8.649,-0.419,-6.641,1.7,HBA_5.11
21,-7.56,-0.18,-3.84,2.3,HBA_5.21
10,-3.58,-0.074,-6.842,1.7,HBA_6.11
10,-0.66,0.16,-7.52,2.3,HBA_6.21

> <MappedFeatures>
PosIonizable_1,HYDROPHOBIC_2,HYDROPHOBIC_3,HYDROPHOBIC_4,HBA_5,HBA_6

> <MappedLocations>
HBA_5.11,HBA_5.21,HBA_6.11,HBA_6.21,HYDROPHOBIC_2.11,HYDROPHOBIC_3.11,HYDROPHOBIC_4.11,PosIonizable_1.11

> <MappingID>
1

> <MaxOmitFeat>
0

> <OBJECTID>
9223372586613932034

> <Pharmprint>
'111111'

> <Pharmtype>
6

> <PosIonizable_1>
1

> <PosIonizable_1_atom>
12

> <PosIonizable_1_fit>
0.136239

> <Principal>
2

> <RelativeEnergy>
3.3954

$$$$
